download/pglib-opf-master/api/pglib_opf_case2746wop_k__api.m
%%%%%%%%%%%%%%%%%%%%%%%%%%%%%%%%%%%%%%%%%%%%%%%%%%%%%%%%%%%%%%%%%%%%%%%%%%%
%%%%                                                                  %%%%%
%%%%    IEEE PES Power Grid Library - Optimal Power Flow - v19.05     %%%%%
%%%%          (https://github.com/power-grid-lib/pglib-opf)           %%%%%
%%%%             Benchmark Group - Active Power Increase              %%%%%
%%%%                         08 - May - 2019                          %%%%%
%%%%                                                                  %%%%%
%%%%%%%%%%%%%%%%%%%%%%%%%%%%%%%%%%%%%%%%%%%%%%%%%%%%%%%%%%%%%%%%%%%%%%%%%%%
function mpc = pglib_opf_case2746wop_k__api
mpc.version = '2';
mpc.baseMVA = 100.0;

%% bus data
%	bus_i	type	Pd	Qd	Gs	Bs	area	Vm	Va	baseKV	zone	Vmax	Vmin
mpc.bus = [
	1	 1	 0.0	 0.0	 0.0	 0.0	 1	    1.03000	    0.00000	 220.0	 1	    1.11000	    0.95000;
	2	 1	 0.0	 0.0	 0.0	 0.0	 1	    1.03000	    0.00000	 220.0	 1	    1.11000	    0.95000;
	3	 1	 0.0	 0.0	 0.0	 0.0	 1	    1.03000	    0.00000	 220.0	 1	    1.11000	    0.95000;
	4	 1	 0.0	 0.0	 0.0	 0.0	 1	    1.03000	    0.00000	 220.0	 1	    1.11000	    0.95000;
	5	 1	 0.0	 0.0	 0.0	 0.0	 1	    1.03000	    0.00000	 220.0	 1	    1.11000	    0.95000;
	6	 1	 0.0	 0.0	 0.0	 0.0	 1	    1.03000	    0.00000	 220.0	 1	    1.11000	    0.95000;
	7	 1	 0.0	 0.0	 0.0	 0.0	 1	    1.03000	    0.00000	 220.0	 1	    1.11000	    0.95000;
	8	 1	 0.0	 0.0	 0.0	 -50.0	 1	    1.00000	    0.00000	 400.0	 1	    1.05000	    0.95000;
	9	 1	 0.0	 0.0	 0.0	 0.0	 1	    1.00000	    0.00000	 400.0	 1	    1.05000	    0.95000;
	10	 1	 0.0	 0.0	 0.0	 0.0	 1	    1.03000	    0.00000	 220.0	 1	    1.11000	    0.95000;
	11	 1	 0.0	 0.0	 0.0	 0.0	 1	    1.03000	    0.00000	 220.0	 1	    1.11000	    0.95000;
	12	 1	 0.0	 0.0	 0.0	 0.0	 1	    1.03000	    0.00000	 220.0	 1	    1.11000	    0.95000;
	13	 1	 0.0	 0.0	 0.0	 -50.0	 1	    1.00000	    0.00000	 400.0	 1	    1.05000	    0.95000;
	14	 1	 0.0	 0.0	 0.0	 0.0	 1	    1.00000	    0.00000	 400.0	 1	    1.05000	    0.95000;
	15	 1	 0.0	 0.0	 0.0	 0.0	 1	    1.00000	    0.00000	 400.0	 1	    1.05000	    0.95000;
	16	 1	 0.0	 0.0	 0.0	 0.0	 1	    1.00000	    0.00000	 400.0	 1	    1.05000	    0.95000;
	17	 2	 2.43	 31.00	 0.0	 0.0	 1	    1.03000	    0.00000	 220.0	 1	    1.11000	    0.95000;
	18	 2	 10.23	 40.00	 0.0	 0.0	 1	    1.03000	    0.00000	 220.0	 1	    1.11000	    0.95000;
	19	 1	 0.0	 0.0	 0.0	 0.0	 1	    1.03000	    0.00000	 220.0	 1	    1.11000	    0.95000;
	20	 1	 0.0	 0.0	 0.0	 0.0	 1	    1.03000	    0.00000	 220.0	 1	    1.11000	    0.95000;
	21	 1	 0.0	 0.0	 0.0	 0.0	 1	    1.03000	    0.00000	 220.0	 1	    1.11000	    0.95000;
	22	 1	 0.0	 0.0	 0.0	 0.0	 1	    1.03000	    0.00000	 220.0	 1	    1.11000	    0.95000;
	23	 1	 0.0	 0.0	 0.0	 0.0	 1	    1.03000	    0.00000	 220.0	 1	    1.11000	    0.95000;
	24	 1	 0.0	 0.0	 0.0	 0.0	 1	    1.03000	    0.00000	 220.0	 1	    1.11000	    0.95000;
	25	 1	 0.0	 0.0	 0.0	 -50.0	 1	    1.00000	    0.00000	 400.0	 1	    1.05000	    0.95000;
	26	 2	 30.12	 42.05	 0.0	 0.0	 1	    1.03000	    0.00000	 220.0	 1	    1.11000	    0.95000;
	27	 2	 89.62	 122.06	 0.0	 0.0	 1	    1.03000	    0.00000	 220.0	 1	    1.11000	    0.95000;
	28	 3	 47.22	 80.00	 0.0	 0.0	 1	    1.00000	    0.00000	 400.0	 1	    1.05000	    0.95000;
	29	 2	 63.36	 90.00	 0.0	 0.0	 1	    1.00000	    0.00000	 400.0	 1	    1.05000	    0.95000;
	30	 1	 0.0	 0.0	 0.0	 0.0	 1	    1.03000	    0.00000	 220.0	 1	    1.11000	    0.95000;
	31	 1	 0.0	 0.0	 0.0	 0.0	 1	    1.00000	    0.00000	 400.0	 1	    1.05000	    0.95000;
	32	 1	 0.0	 0.0	 0.0	 0.0	 1	    1.03000	    0.00000	 220.0	 1	    1.11000	    0.95000;
	33	 1	 0.0	 0.0	 0.0	 0.0	 1	    1.03000	    0.00000	 220.0	 1	    1.11000	    0.95000;
	34	 1	 0.0	 0.0	 0.0	 0.0	 1	    1.03000	    0.00000	 220.0	 1	    1.11000	    0.95000;
	35	 1	 0.0	 0.0	 0.0	 0.0	 1	    1.03000	    0.00000	 220.0	 2	    1.11000	    0.95000;
	36	 1	 0.0	 0.0	 0.0	 0.0	 1	    1.03000	    0.00000	 220.0	 2	    1.11000	    0.95000;
	37	 1	 0.0	 0.0	 0.0	 0.0	 1	    1.03000	    0.00000	 220.0	 2	    1.11000	    0.95000;
	38	 1	 0.0	 0.0	 0.0	 0.0	 1	    1.03000	    0.00000	 220.0	 2	    1.11000	    0.95000;
	39	 1	 0.0	 0.0	 0.0	 0.0	 1	    1.03000	    0.00000	 220.0	 2	    1.11000	    0.95000;
	40	 1	 0.0	 0.0	 0.0	 0.0	 1	    1.03000	    0.00000	 220.0	 2	    1.11000	    0.95000;
	41	 1	 0.0	 0.0	 0.0	 0.0	 1	    1.03000	    0.00000	 220.0	 2	    1.11000	    0.95000;
	42	 1	 0.0	 0.0	 0.0	 0.0	 1	    1.00000	    0.00000	 400.0	 2	    1.05000	    0.95000;
	43	 2	 12.00	 0.00	 0.0	 0.0	 1	    1.03000	    0.00000	 220.0	 2	    1.11000	    0.95000;
	44	 2	 24.00	 0.00	 0.0	 0.0	 1	    1.03000	    0.00000	 220.0	 2	    1.11000	    0.95000;
	45	 2	 20.00	 0.00	 0.0	 0.0	 1	    1.00000	    0.00000	 400.0	 2	    1.05000	    0.95000;
	46	 1	 0.0	 0.0	 0.0	 0.0	 1	    1.00000	    0.00000	 400.0	 2	    1.05000	    0.95000;
	47	 1	 0.0	 0.0	 0.0	 0.0	 1	    1.03000	    0.00000	 220.0	 2	    1.11000	    0.95000;
	48	 1	 0.0	 0.0	 0.0	 0.0	 1	    1.00000	    0.00000	 400.0	 2	    1.05000	    0.95000;
	49	 1	 0.0	 0.0	 0.0	 0.0	 1	    1.00000	    0.00000	 400.0	 2	    1.05000	    0.95000;
	50	 1	 0.0	 0.0	 0.0	 0.0	 1	    1.00000	    0.00000	 400.0	 2	    1.05000	    0.95000;
	51	 1	 0.0	 0.0	 0.0	 0.0	 1	    1.03000	    0.00000	 220.0	 2	    1.11000	    0.95000;
	52	 1	 0.0	 0.0	 0.0	 0.0	 1	    1.03000	    0.00000	 220.0	 2	    1.11000	    0.95000;
	53	 1	 0.0	 0.0	 0.0	 0.0	 1	    1.00000	    0.00000	 400.0	 2	    1.05000	    0.95000;
	54	 1	 0.0	 0.0	 0.0	 0.0	 1	    1.00000	    0.00000	 400.0	 2	    1.05000	    0.95000;
	55	 2	 12.00	 0.00	 0.0	 0.0	 1	    1.03000	    0.00000	 220.0	 2	    1.11000	    0.95000;
	56	 2	 12.00	 0.00	 0.0	 0.0	 1	    1.03000	    0.00000	 220.0	 2	    1.11000	    0.95000;
	57	 2	 12.00	 0.00	 0.0	 0.0	 1	    1.00000	    0.00000	 400.0	 2	    1.05000	    0.95000;
	58	 2	 12.00	 0.00	 0.0	 0.0	 1	    1.00000	    0.00000	 400.0	 2	    1.05000	    0.95000;
	59	 2	 180.01	 62.00	 0.0	 0.0	 1	    1.03000	    0.00000	 220.0	 2	    1.11000	    0.95000;
	60	 1	 0.0	 0.0	 0.0	 0.0	 1	    1.03000	    0.00000	 220.0	 2	    1.11000	    0.95000;
	61	 1	 0.0	 0.0	 0.0	 0.0	 1	    1.03000	    0.00000	 220.0	 2	    1.11000	    0.95000;
	62	 1	 0.0	 0.0	 0.0	 0.0	 1	    1.03000	    0.00000	 220.0	 2	    1.11000	    0.95000;
	63	 1	 0.0	 0.0	 0.0	 0.0	 1	    1.03000	    0.00000	 220.0	 2	    1.11000	    0.95000;
	64	 1	 0.0	 0.0	 0.0	 0.0	 1	    1.00000	    0.00000	 400.0	 2	    1.05000	    0.95000;
	65	 1	 0.0	 0.0	 0.0	 0.0	 1	    1.00000	    0.00000	 400.0	 2	    1.05000	    0.95000;
	66	 1	 0.0	 0.0	 0.0	 0.0	 1	    1.03000	    0.00000	 220.0	 2	    1.11000	    0.95000;
	67	 1	 0.0	 0.0	 0.0	 0.0	 1	    1.03000	    0.00000	 220.0	 2	    1.11000	    0.95000;
	68	 1	 0.0	 0.0	 0.0	 0.0	 1	    1.03000	    0.00000	 220.0	 2	    1.11000	    0.95000;
	69	 1	 0.0	 0.0	 0.0	 0.0	 1	    1.03000	    0.00000	 220.0	 3	    1.11000	    0.95000;
	70	 1	 6.80	 0.00	 0.0	 0.0	 1	    1.03000	    0.00000	 220.0	 3	    1.11000	    0.95000;
	71	 1	 11.95	 2.43	 0.0	 0.0	 1	    1.03000	    0.00000	 220.0	 3	    1.11000	    0.95000;
	72	 1	 0.0	 0.0	 0.0	 0.0	 1	    1.03000	    0.00000	 220.0	 3	    1.11000	    0.95000;
	73	 1	 0.0	 0.0	 0.0	 0.0	 1	    1.03000	    0.00000	 220.0	 3	    1.11000	    0.95000;
	74	 1	 0.0	 0.0	 0.0	 0.0	 1	    1.03000	    0.00000	 220.0	 3	    1.11000	    0.95000;
	75	 1	 0.0	 0.0	 0.0	 0.0	 1	    1.03000	    0.00000	 220.0	 3	    1.11000	    0.95000;
	76	 1	 0.0	 0.0	 0.0	 0.0	 1	    1.03000	    0.00000	 220.0	 3	    1.11000	    0.95000;
	77	 1	 0.0	 0.0	 0.0	 0.0	 1	    1.03000	    0.00000	 220.0	 3	    1.11000	    0.95000;
	78	 2	 28.47	 70.00	 0.0	 0.0	 1	    1.03000	    0.00000	 220.0	 3	    1.11000	    0.95000;
	79	 2	 9.49	 21.00	 0.0	 0.0	 1	    1.03000	    0.00000	 220.0	 3	    1.11000	    0.95000;
	80	 1	 10.63	 1.38	 0.0	 0.0	 1	    1.03000	    0.00000	 220.0	 3	    1.11000	    0.95000;
	81	 1	 0.0	 0.0	 0.0	 0.0	 1	    1.03000	    0.00000	 220.0	 3	    1.11000	    0.95000;
	82	 2	 36.90	 108.00	 0.0	 0.0	 1	    1.00000	    0.00000	 400.0	 3	    1.05000	    0.95000;
	83	 1	 0.0	 0.0	 0.0	 0.0	 1	    1.03000	    0.00000	 220.0	 3	    1.11000	    0.95000;
	84	 1	 0.0	 0.0	 0.0	 0.0	 1	    1.03000	    0.00000	 220.0	 3	    1.11000	    0.95000;
	85	 1	 0.0	 0.0	 0.0	 0.0	 1	    1.03000	    0.00000	 220.0	 3	    1.11000	    0.95000;
	86	 1	 46.55	 10.56	 0.0	 0.0	 1	    1.03000	    0.00000	 220.0	 3	    1.11000	    0.95000;
	87	 1	 0.0	 0.0	 0.0	 0.0	 1	    1.03000	    0.00000	 220.0	 3	    1.11000	    0.95000;
	88	 1	 0.0	 0.0	 0.0	 0.0	 1	    1.03000	    0.00000	 220.0	 3	    1.11000	    0.95000;
	89	 1	 0.0	 0.0	 0.0	 0.0	 1	    1.03000	    0.00000	 220.0	 3	    1.11000	    0.95000;
	90	 1	 0.0	 0.0	 0.0	 0.0	 1	    1.03000	    0.00000	 220.0	 3	    1.11000	    0.95000;
	91	 1	 0.0	 0.0	 0.0	 0.0	 1	    1.03000	    0.00000	 220.0	 3	    1.11000	    0.95000;
	92	 1	 0.0	 0.0	 0.0	 0.0	 1	    1.00000	    0.00000	 400.0	 3	    1.05000	    0.95000;
	93	 1	 0.0	 0.0	 0.0	 0.0	 1	    1.00000	    0.00000	 400.0	 3	    1.05000	    0.95000;
	94	 1	 0.0	 0.0	 0.0	 0.0	 1	    1.03000	    0.00000	 220.0	 3	    1.11000	    0.95000;
	95	 1	 0.0	 0.0	 0.0	 0.0	 1	    1.03000	    0.00000	 220.0	 3	    1.11000	    0.95000;
	96	 1	 0.0	 0.0	 0.0	 0.0	 1	    1.03000	    0.00000	 220.0	 3	    1.11000	    0.95000;
	97	 1	 0.0	 0.0	 0.0	 0.0	 1	    1.03000	    0.00000	 220.0	 3	    1.11000	    0.95000;
	98	 1	 18.04	 6.32	 0.0	 0.0	 1	    1.03000	    0.00000	 220.0	 3	    1.11000	    0.95000;
	99	 1	 0.0	 0.0	 0.0	 0.0	 1	    1.03000	    0.00000	 220.0	 3	    1.11000	    0.95000;
	100	 1	 0.0	 0.0	 0.0	 0.0	 1	    1.03000	    0.00000	 220.0	 3	    1.11000	    0.95000;
	101	 1	 0.0	 0.0	 0.0	 0.0	 1	    1.03000	    0.00000	 220.0	 3	    1.11000	    0.95000;
	102	 1	 0.0	 0.0	 0.0	 0.0	 1	    1.03000	    0.00000	 220.0	 3	    1.11000	    0.95000;
	103	 1	 0.0	 0.0	 0.0	 0.0	 1	    1.03000	    0.00000	 220.0	 3	    1.11000	    0.95000;
	104	 2	 14.76	 40.00	 0.0	 0.0	 1	    1.03000	    0.00000	 220.0	 3	    1.11000	    0.95000;
	105	 2	 0.0	 0.0	 0.0	 0.0	 1	    1.03000	    0.00000	 220.0	 3	    1.11000	    0.95000;
	106	 2	 7.38	 18.00	 0.0	 0.0	 1	    1.03000	    0.00000	 220.0	 3	    1.11000	    0.95000;
	107	 2	 8.43	 15.00	 0.0	 0.0	 1	    1.03000	    0.00000	 220.0	 3	    1.11000	    0.95000;
	108	 1	 55.59	 17.14	 0.0	 0.0	 1	    1.03000	    0.00000	 220.0	 3	    1.11000	    0.95000;
	109	 1	 59.51	 10.90	 0.0	 0.0	 1	    1.03000	    0.00000	 220.0	 3	    1.11000	    0.95000;
	110	 1	 0.0	 0.0	 0.0	 0.0	 1	    1.03000	    0.00000	 220.0	 3	    1.11000	    0.95000;
	111	 1	 0.0	 0.0	 0.0	 0.0	 1	    1.03000	    0.00000	 220.0	 3	    1.11000	    0.95000;
	112	 1	 0.0	 0.0	 0.0	 0.0	 1	    1.03000	    0.00000	 220.0	 3	    1.11000	    0.95000;
	113	 1	 0.0	 0.0	 0.0	 0.0	 1	    1.03000	    0.00000	 220.0	 3	    1.11000	    0.95000;
	114	 1	 0.0	 0.0	 0.0	 0.0	 1	    1.03000	    0.00000	 220.0	 3	    1.11000	    0.95000;
	115	 1	 0.0	 0.0	 0.0	 0.0	 1	    1.00000	    0.00000	 400.0	 3	    1.05000	    0.95000;
	116	 2	 0.0	 0.0	 0.0	 0.0	 1	    1.03000	    0.00000	 220.0	 3	    1.11000	    0.95000;
	117	 2	 8.43	 15.00	 0.0	 0.0	 1	    1.03000	    0.00000	 220.0	 3	    1.11000	    0.95000;
	118	 2	 5.80	 10.00	 0.0	 0.0	 1	    1.03000	    0.00000	 220.0	 3	    1.11000	    0.95000;
	119	 1	 0.0	 0.0	 0.0	 0.0	 1	    1.03000	    0.00000	 220.0	 3	    1.11000	    0.95000;
	120	 1	 0.0	 0.0	 0.0	 0.0	 1	    1.00000	    0.00000	 400.0	 3	    1.05000	    0.95000;
	121	 1	 0.0	 0.0	 0.0	 0.0	 1	    1.00000	    0.00000	 400.0	 3	    1.05000	    0.95000;
	122	 1	 0.0	 0.0	 0.0	 0.0	 1	    1.00000	    0.00000	 400.0	 3	    1.05000	    0.95000;
	123	 1	 0.0	 0.0	 0.0	 0.0	 1	    1.00000	    0.00000	 400.0	 3	    1.05000	    0.95000;
	124	 1	 0.0	 0.0	 0.0	 0.0	 1	    1.03000	    0.00000	 220.0	 3	    1.11000	    0.95000;
	125	 2	 20.26	 21.47	 0.0	 0.0	 1	    1.03000	    0.00000	 220.0	 3	    1.11000	    0.95000;
	126	 2	 32.34	 33.60	 0.0	 0.0	 1	    1.03000	    0.00000	 220.0	 3	    1.11000	    0.95000;
	127	 2	 29.52	 66.00	 0.0	 0.0	 1	    1.00000	    0.00000	 400.0	 3	    1.05000	    0.95000;
	128	 1	 0.0	 0.0	 0.0	 0.0	 1	    1.00000	    0.00000	 400.0	 3	    1.05000	    0.95000;
	129	 1	 0.0	 0.0	 0.0	 0.0	 1	    1.03000	    0.00000	 220.0	 3	    1.11000	    0.95000;
	130	 1	 0.0	 0.0	 0.0	 0.0	 1	    1.03000	    0.00000	 220.0	 3	    1.11000	    0.95000;
	131	 1	 0.0	 0.0	 0.0	 0.0	 1	    1.03000	    0.00000	 220.0	 3	    1.11000	    0.95000;
	132	 2	 272.00	 -62.00	 0.0	 0.0	 1	    1.03000	    0.00000	 220.0	 3	    1.11000	    0.95000;
	133	 2	 266.50	 -24.80	 0.0	 0.0	 1	    1.03000	    0.00000	 220.0	 3	    1.11000	    0.95000;
	134	 2	 15.74	 12.88	 0.0	 0.0	 1	    1.03000	    0.00000	 220.0	 4	    1.11000	    0.95000;
	135	 2	 8.45	 6.53	 0.0	 0.0	 1	    1.03000	    0.00000	 220.0	 4	    1.11000	    0.95000;
	136	 1	 0.0	 0.0	 0.0	 0.0	 1	    1.03000	    0.00000	 220.0	 4	    1.11000	    0.95000;
	137	 1	 0.0	 0.0	 0.0	 0.0	 1	    1.03000	    0.00000	 220.0	 4	    1.11000	    0.95000;
	138	 1	 0.0	 0.0	 0.0	 0.0	 1	    1.00000	    0.00000	 400.0	 4	    1.05000	    0.95000;
	139	 1	 0.0	 0.0	 0.0	 0.0	 1	    1.00000	    0.00000	 400.0	 4	    1.05000	    0.95000;
	140	 1	 0.0	 0.0	 0.0	 0.0	 1	    1.03000	    0.00000	 220.0	 4	    1.11000	    0.95000;
	141	 1	 0.0	 0.0	 0.0	 0.0	 1	    1.03000	    0.00000	 220.0	 4	    1.11000	    0.95000;
	142	 1	 0.0	 0.0	 0.0	 0.0	 1	    1.03000	    0.00000	 220.0	 4	    1.11000	    0.95000;
	143	 1	 0.0	 0.0	 0.0	 0.0	 1	    1.03000	    0.00000	 220.0	 4	    1.11000	    0.95000;
	144	 1	 0.0	 0.0	 0.0	 0.0	 1	    1.03000	    0.00000	 220.0	 4	    1.11000	    0.95000;
	145	 1	 0.0	 0.0	 0.0	 0.0	 1	    1.03000	    0.00000	 220.0	 4	    1.11000	    0.95000;
	146	 2	 58.26	 6.96	 0.0	 0.0	 1	    1.03000	    0.00000	 220.0	 4	    1.11000	    0.95000;
	147	 2	 10.62	 8.40	 0.0	 0.0	 1	    1.03000	    0.00000	 220.0	 4	    1.11000	    0.95000;
	148	 2	 12.12	 6.86	 0.0	 0.0	 1	    1.03000	    0.00000	 220.0	 4	    1.11000	    0.95000;
	149	 1	 4.66	 1.35	 0.0	 0.0	 1	    1.03000	    0.00000	 220.0	 4	    1.11000	    0.95000;
	150	 2	 13.32	 6.83	 0.0	 0.0	 1	    1.00000	    0.00000	 400.0	 4	    1.05000	    0.95000;
	151	 2	 13.07	 10.04	 0.0	 0.0	 1	    1.00000	    0.00000	 400.0	 4	    1.05000	    0.95000;
	152	 1	 0.0	 0.0	 0.0	 0.0	 1	    1.03000	    0.00000	 220.0	 4	    1.11000	    0.95000;
	153	 1	 0.0	 0.0	 0.0	 0.0	 1	    1.03000	    0.00000	 220.0	 4	    1.11000	    0.95000;
	154	 1	 0.0	 0.0	 0.0	 0.0	 1	    1.03000	    0.00000	 220.0	 4	    1.11000	    0.95000;
	155	 2	 35.42	 44.98	 0.0	 0.0	 1	    1.03000	    0.00000	 220.0	 4	    1.11000	    0.95000;
	156	 2	 35.67	 45.07	 0.0	 0.0	 1	    1.03000	    0.00000	 220.0	 4	    1.11000	    0.95000;
	157	 1	 0.0	 0.0	 0.0	 0.0	 1	    1.03000	    0.00000	 220.0	 4	    1.11000	    0.95000;
	158	 1	 0.0	 0.0	 0.0	 0.0	 1	    1.00000	    0.00000	 400.0	 4	    1.05000	    0.95000;
	159	 2	 9.16	 17.49	 0.0	 0.0	 1	    1.00000	    0.00000	 400.0	 4	    1.05000	    0.95000;
	160	 1	 0.0	 0.0	 0.0	 0.0	 1	    1.03000	    0.00000	 220.0	 4	    1.11000	    0.95000;
	161	 1	 0.0	 0.0	 0.0	 0.0	 1	    1.03000	    0.00000	 220.0	 4	    1.11000	    0.95000;
	162	 1	 0.0	 0.0	 0.0	 0.0	 1	    1.00000	    0.00000	 400.0	 4	    1.05000	    0.95000;
	163	 1	 0.0	 0.0	 0.0	 0.0	 1	    1.00000	    0.00000	 400.0	 4	    1.05000	    0.95000;
	164	 1	 0.0	 0.0	 0.0	 0.0	 1	    1.00000	    0.00000	 400.0	 4	    1.05000	    0.95000;
	165	 2	 5.79	 9.59	 0.0	 0.0	 1	    1.03000	    0.00000	 220.0	 4	    1.11000	    0.95000;
	166	 2	 10.65	 4.89	 0.0	 0.0	 1	    1.03000	    0.00000	 220.0	 4	    1.11000	    0.95000;
	167	 1	 15.14	 13.62	 0.0	 0.0	 1	    1.03000	    0.00000	 220.0	 4	    1.11000	    0.95000;
	168	 1	 0.0	 0.0	 0.0	 0.0	 1	    1.03000	    0.00000	 220.0	 4	    1.11000	    0.95000;
	169	 1	 0.0	 0.0	 0.0	 0.0	 1	    1.03000	    0.00000	 220.0	 4	    1.11000	    0.95000;
	170	 1	 0.0	 0.0	 0.0	 0.0	 1	    1.03000	    0.00000	 220.0	 4	    1.11000	    0.95000;
	171	 1	 0.0	 0.0	 0.0	 0.0	 1	    1.03000	    0.00000	 220.0	 4	    1.11000	    0.95000;
	172	 1	 0.0	 0.0	 0.0	 0.0	 1	    1.00000	    0.00000	 400.0	 4	    1.05000	    0.95000;
	173	 1	 0.0	 0.0	 0.0	 0.0	 1	    1.00000	    0.00000	 400.0	 4	    1.05000	    0.95000;
	174	 1	 0.0	 0.0	 0.0	 0.0	 1	    1.03000	    0.00000	 220.0	 4	    1.11000	    0.95000;
	175	 1	 0.0	 0.0	 0.0	 0.0	 1	    1.03000	    0.00000	 220.0	 4	    1.11000	    0.95000;
	176	 1	 0.0	 0.0	 0.0	 0.0	 1	    1.03000	    0.00000	 220.0	 4	    1.11000	    0.95000;
	177	 1	 0.0	 0.0	 0.0	 0.0	 1	    1.03000	    0.00000	 220.0	 4	    1.11000	    0.95000;
	178	 1	 0.0	 0.0	 0.0	 0.0	 1	    1.03000	    0.00000	 220.0	 4	    1.11000	    0.95000;
	179	 1	 0.0	 0.0	 0.0	 0.0	 1	    1.03000	    0.00000	 220.0	 4	    1.11000	    0.95000;
	180	 1	 0.0	 0.0	 0.0	 0.0	 1	    1.03000	    0.00000	 220.0	 4	    1.11000	    0.95000;
	181	 1	 0.0	 0.0	 0.0	 0.0	 1	    1.03000	    0.00000	 220.0	 4	    1.11000	    0.95000;
	182	 1	 0.0	 0.0	 0.0	 0.0	 1	    1.03000	    0.00000	 220.0	 5	    1.11000	    0.95000;
	183	 1	 0.0	 0.0	 0.0	 0.0	 1	    1.03000	    0.00000	 220.0	 5	    1.11000	    0.95000;
	184	 1	 0.0	 0.0	 0.0	 0.0	 1	    1.00000	    0.00000	 400.0	 5	    1.05000	    0.95000;
	185	 1	 0.0	 0.0	 0.0	 0.0	 1	    1.00000	    0.00000	 400.0	 5	    1.05000	    0.95000;
	186	 1	 0.0	 0.0	 0.0	 0.0	 1	    1.00000	    0.00000	 400.0	 5	    1.05000	    0.95000;
	187	 1	 0.0	 0.0	 0.0	 0.0	 1	    1.00000	    0.00000	 400.0	 5	    1.05000	    0.95000;
	188	 1	 0.0	 0.0	 0.0	 0.0	 1	    1.03000	    0.00000	 220.0	 5	    1.11000	    0.95000;
	189	 1	 0.0	 0.0	 0.0	 0.0	 1	    1.03000	    0.00000	 220.0	 5	    1.11000	    0.95000;
	190	 1	 0.0	 0.0	 0.0	 0.0	 1	    1.03000	    0.00000	 220.0	 5	    1.11000	    0.95000;
	191	 1	 0.0	 0.0	 0.0	 0.0	 1	    1.03000	    0.00000	 220.0	 5	    1.11000	    0.95000;
	192	 1	 0.0	 0.0	 0.0	 0.0	 1	    1.00000	    0.00000	 400.0	 5	    1.05000	    0.95000;
	193	 1	 0.0	 0.0	 0.0	 0.0	 1	    1.03000	    0.00000	 220.0	 5	    1.11000	    0.95000;
	194	 1	 0.0	 0.0	 0.0	 0.0	 1	    1.03000	    0.00000	 220.0	 5	    1.11000	    0.95000;
	195	 1	 0.0	 0.0	 0.0	 0.0	 1	    1.00000	    0.00000	 400.0	 5	    1.05000	    0.95000;
	196	 1	 0.0	 0.0	 0.0	 0.0	 1	    1.00000	    0.00000	 400.0	 5	    1.05000	    0.95000;
	197	 1	 0.0	 0.0	 0.0	 0.0	 1	    1.03000	    0.00000	 220.0	 5	    1.11000	    0.95000;
	198	 1	 0.0	 0.0	 0.0	 0.0	 1	    1.03000	    0.00000	 220.0	 5	    1.11000	    0.95000;
	199	 1	 0.0	 0.0	 0.0	 0.0	 1	    1.00000	    0.00000	 400.0	 5	    1.05000	    0.95000;
	200	 1	 0.0	 0.0	 0.0	 0.0	 1	    1.00000	    0.00000	 400.0	 5	    1.05000	    0.95000;
...
];

%% generator data
%	bus	Pg	Qg	Qmax	Qmin	Vg	mBase	status	Pmax	Pmin
mpc.gen = [
	17	 368.5	 0.0	 334.0	 -334.0	 1.03	 233.2	 1	 667	 70.0; % COW
	18	 108.0	 23.5	 120.0	 -73.0	 1.03	 233.2	 1	 146	 70.0; % NG
	26	 0.0	 0.0	 220.0	 -141.0	 1.03	 430.5	 0	 281	 145.0; % NG
	26	 521.0	 0.0	 449.0	 -449.0	 1.03	 421.9	 1	 897	 145.0; % COW
	27	 251.5	 20.5	 220.0	 -179.0	 1.03	 421.9	 1	 358	 145.0; % NG
	27	 277.0	 7.5	 220.0	 -205.0	 1.03	 430.5	 1	 409	 145.0; % COW
	27	 304.0	 0.0	 232.0	 -232.0	 1.03	 430.5	 1	 463	 145.0; % COW
	28	 0.0	 0.0	 388.0	 -388.0	 1.0	 430.5	 0	 775	 145.0; % NUC
	28	 222.0	 35.0	 220.0	 -150.0	 1.0	 430.5	 1	 299	 145.0; % COW
	28	 496.0	 0.0	 424.0	 -424.0	 1.0	 430.5	 1	 847	 145.0; % COW
	29	 231.5	 30.5	 220.0	 -159.0	 1.0	 430.5	 1	 318	 145.0; % NG
	29	 338.5	 0.0	 266.0	 -266.0	 1.0	 430.5	 1	 532	 145.0; % COW
	29	 245.5	 23.5	 220.0	 -173.0	 1.0	 430.5	 1	 346	 145.0; % NG
	43	 154.25	 0.0	 121.0	 -121.0	 1.03	 246.2	 1	 241	 67.5; % NG
	43	 0.0	 0.0	 120.0	 -20.0	 1.03	 275.3	 0	 28	 135.0; % NG
	43	 0.0	 0.0	 120.0	 -77.0	 1.03	 275.3	 0	 154	 67.5; % NG
	44	 131.25	 11.0	 120.0	 -98.0	 1.03	 255.0	 1	 195	 67.5; % NG
	44	 112.25	 20.5	 120.0	 -79.0	 1.03	 255.0	 1	 157	 67.5; % NG
	44	 0.0	 0.0	 120.0	 -39.0	 1.03	 255.0	 0	 78	 67.5; % NG
	45	 0.0	 0.0	 350.0	 -49.0	 1.0	 610.3	 0	 97	 350.0; % NG
	45	 428.0	 4.5	 350.0	 -341.0	 1.0	 610.3	 1	 681	 175.0; % COW
	55	 129.5	 11.5	 120.0	 -97.0	 1.03	 255.0	 1	 194	 65.0; % NG
	56	 344.0	 0.0	 312.0	 -312.0	 1.03	 255.0	 1	 623	 65.0; % COW
	56	 0.0	 0.0	 120.0	 -29.0	 1.03	 255.0	 0	 57	 130.0; % NG
	57	 143.5	 4.5	 120.0	 -111.0	 1.0	 255.0	 1	 222	 65.0; % NG
	58	 0.0	 0.0	 120.0	 -20.0	 1.0	 255.0	 0	 5	 130.0; % COW
	58	 131.5	 0.0	 148.8	 -148.8	 1.0	 255.0	 1	 198	 65.0; % NG
	58	 0.0	 0.0	 120.0	 -72.0	 1.0	 255.0	 0	 143	 65.0; % NG
	59	 131.25	 0.0	 116.0	 -116.0	 1.03	 69.3	 1	 231	 31.5; % NG
	78	 123.0	 8.5	 105.0	 -88.0	 1.03	 248.3	 1	 176	 70.0; % NG
	78	 166.0	 0.0	 131.0	 -131.0	 1.03	 248.3	 1	 262	 70.0; % NG
	79	 0.0	 0.0	 105.0	 -13.0	 1.03	 243.8	 0	 25	 140.0; % NG
	79	 0.0	 0.0	 179.0	 -179.0	 1.03	 248.3	 0	 357	 70.0; % NG
	79	 137.5	 1.0	 105.0	 -103.0	 1.03	 248.3	 1	 205	 70.0; % NG
	82	 170.5	 38.0	 192.0	 -116.0	 1.0	 425.8	 1	 231	 110.0; % COW
	82	 191.5	 18.5	 174.0	 -137.0	 1.0	 408.9	 1	 273	 110.0; % NG
	104	 161.5	 0.0	 393.6	 -393.6	 1.03	 251.8	 1	 263	 60.0; % NG
	105	 0.0	 0.0	 113.0	 -59.0	 1.03	 251.8	 0	 118	 67.0; % NG
	106	 116.25	 0.0	 97.0	 -97.0	 1.03	 150.0	 1	 193	 39.5; % COW
	107	 77.75	 16.0	 90.0	 -58.0	 1.03	 150.0	 1	 116	 39.5; % NG
	116	 0.0	 0.0	 106.0	 -106.0	 1.03	 150.0	 0	 212	 45.0; % COW
	117	 61.5	 23.0	 90.0	 -44.0	 1.03	 150.0	 1	 88	 35.0; % COW
	118	 114.0	 0.0	 94.0	 -94.0	 1.03	 129.3	 1	 188	 40.0; % NG
	125	 142.0	 0.0	 224.4	 -224.4	 1.03	 242.9	 1	 204	 80.0; % NG
	126	 182.5	 0.0	 148.0	 -148.0	 1.03	 240.2	 1	 295	 70.0; % COW
	126	 0.0	 0.0	 80.0	 -34.0	 1.03	 229.4	 0	 68	 160.0; % NG
	127	 175.5	 0.0	 141.0	 -141.0	 1.0	 238.5	 1	 281	 70.0; % NG
	127	 124.5	 7.5	 100.0	 -85.0	 1.0	 241.7	 1	 169	 80.0; % NG
	132	 0.0	 0.0	 0.0	 0.0	 1.03	 0.0	 0	 0	 0.0; % SYNC
	132	 0.0	 0.0	 0.0	 0.0	 1.03	 0.0	 0	 0	 0.0; % SYNC
	133	 0.0	 0.0	 0.0	 0.0	 1.03	 0.0	 0	 0	 0.0; % SYNC
	133	 0.0	 0.0	 0.0	 0.0	 1.03	 0.0	 0	 0	 0.0; % SYNC
	134	 0.0	 0.0	 90.0	 -31.0	 1.03	 150.0	 0	 61	 51.0; % NG
	134	 122.0	 0.0	 97.0	 -97.0	 1.03	 150.0	 1	 194	 50.0; % NG
	135	 0.0	 0.0	 90.0	 -14.0	 1.03	 150.0	 0	 28	 102.0; % NG
	146	 60.5	 0.0	 53.0	 -53.0	 1.03	 51.4	 1	 106	 15.0; % NG
	146	 33.5	 0.0	 26.0	 -26.0	 1.03	 51.4	 1	 52	 15.0; % NG
	147	 0.0	 0.0	 90.0	 -60.0	 1.03	 150.0	 0	 120	 45.0; % NG
	148	 80.0	 27.6	 120.0	 -64.8	 1.03	 252.4	 1	 115	 45.0; % NG
	148	 0.0	 0.0	 120.0	 -16.0	 1.03	 237.5	 0	 31	 135.0; % NG
	148	 0.0	 0.0	 217.0	 -217.0	 1.03	 237.5	 0	 433	 67.5; % NG
	148	 94.5	 24.0	 120.0	 -72.0	 1.03	 252.4	 1	 144	 45.0; % NG
	150	 113.0	 0.0	 146.4	 -146.4	 1.0	 252.4	 1	 181	 45.0; % NG
	151	 193.0	 0.0	 273.6	 -273.6	 1.0	 252.4	 1	 341	 45.0; % COW
	151	 0.0	 0.0	 120.0	 -88.0	 1.0	 252.4	 0	 176	 45.0; % NG
	155	 93.5	 25.0	 120.0	 -70.0	 1.03	 263.9	 1	 140	 47.0; % NG
	155	 167.5	 0.0	 144.0	 -144.0	 1.03	 263.9	 1	 288	 47.0; % COW
	155	 0.0	 0.0	 194.0	 -194.0	 1.03	 237.5	 0	 387	 65.0; % COW
	155	 108.0	 19.0	 120.0	 -82.0	 1.03	 287.3	 1	 164	 52.0; % NG
	156	 0.0	 0.0	 120.0	 -59.0	 1.03	 237.5	 0	 117	 65.0; % NG
	156	 124.5	 14.0	 120.0	 -92.0	 1.03	 237.5	 1	 184	 65.0; % NG
	156	 161.5	 0.0	 132.0	 -132.0	 1.03	 238.4	 1	 263	 60.0; % NG
	156	 110.0	 20.0	 120.0	 -80.0	 1.03	 238.4	 1	 160	 60.0; % NG
	159	 239.5	 0.0	 210.0	 -210.0	 1.0	 238.4	 1	 419	 60.0; % COW
	165	 134.5	 11.5	 120.0	 -97.0	 1.03	 233.2	 1	 194	 75.0; % NG
	165	 0.0	 0.0	 120.0	 -16.0	 1.03	 233.2	 0	 31	 150.0; % COW
	166	 190.0	 0.0	 153.0	 -153.0	 1.03	 233.2	 1	 305	 75.0; % NG
	165	 0.0	 0.0	 120.0	 -12.0	 1.03	 233.2	 0	 23	 150.0; % NG
	205	 0.0	 25.0	 80.0	 -30.0	 1.0	 196.1	 1	 0	 0.0; % SYNC
	205	 0.0	 25.0	 80.0	 -30.0	 1.0	 196.1	 1	 0	 0.0; % SYNC
	205	 0.0	 25.0	 80.0	 -30.0	 1.0	 196.1	 1	 0	 0.0; % SYNC
	206	 0.0	 25.0	 80.0	 -30.0	 1.0	 196.1	 1	 0	 0.0; % SYNC
	215	 31.76975	 0.0	 23.0	 -23.0	 1.035	 58.5	 1	 45	 18.5395; % NG
	215	 29.427	 0.0	 21.0	 -21.0	 1.035	 53.9	 1	 42	 16.854; % PEL
	215	 71.927	 0.0	 64.0	 -64.0	 1.035	 53.9	 1	 127	 16.854; % NG
	215	 42.3765	 0.0	 39.0	 -39.0	 1.035	 30.5	 1	 77	 7.753; % NG
	229	 7.375	 0.0	 6.0	 -6.0	 1.035	 7.3	 1	 12	 2.75; % NG
	230	 7.375	 0.5	 7.0	 -6.0	 1.035	 10.0	 1	 12	 2.75; % NG
	239	 26.75	 0.0	 26.0	 -26.0	 1.035	 15.4	 1	 52	 1.5; % NG
	246	 223.0	 -13.0	 220.0	 -246.0	 1.035	 430.5	 1	 301	 145.0; % NG
	291	 10.0	 0.0	 10.0	 -10.0	 1.035	 3.2	 1	 19	 1.0; % PEL
	294	 14.5	 0.0	 14.0	 -14.0	 1.035	 4.8	 1	 28	 1.0; % PEL
	306	 40.79175	 0.0	 39.0	 -39.0	 1.035	 24.0	 1	 77	 4.5835; % NG
	306	 42.574	 0.0	 39.0	 -39.0	 1.035	 27.9	 1	 77	 8.148; % NG
	306	 11.801	 0.0	 14.4	 -14.4	 1.035	 31.0	 1	 18	 5.602; % NG
	306	 17.29175	 0.0	 15.0	 -15.0	 1.035	 26.9	 1	 30	 4.5835; % NG
	306	 25.79175	 0.0	 24.0	 -24.0	 1.035	 28.1	 1	 47	 4.5835; % NG
	307	 34.125	 0.0	 25.0	 -25.0	 1.035	 57.0	 1	 50	 18.25; % PEL
	307	 45.625	 0.0	 37.0	 -37.0	 1.035	 57.0	 1	 73	 18.25; % NG
	308	 40.5	 0.0	 33.0	 -33.0	 1.035	 36.7	 1	 65	 16.0; % NG
	308	 41.0	 0.0	 31.0	 -31.0	 1.035	 57.5	 1	 62	 20.0; % NG
	310	 36.25	 0.0	 28.0	 -28.0	 1.035	 53.9	 1	 55	 17.5; % PEL
	310	 63.75	 0.0	 45.0	 -45.0	 1.035	 103.2	 1	 90	 37.5; % PEL
	311	 87.25	 0.0	 76.0	 -76.0	 1.035	 64.0	 1	 152	 22.5; % COW
	319	 17.0	 0.0	 17.0	 -17.0	 1.035	 4.1	 1	 33	 1.0; % NG
	345	 21.75	 0.0	 22.0	 -22.0	 1.035	 1.9	 1	 43	 0.5; % PEL
	362	 96.5	 0.0	 87.0	 -87.0	 1.035	 47.8	 1	 173	 20.0; % NG
	363	 112.0	 0.0	 102.0	 -102.0	 1.035	 47.8	 1	 204	 20.0; % COW
	364	 0.0	 0.0	 12.0	 0.0	 1.035	 47.8	 0	 0	 0.0; % SYNC
	364	 48.0	 0.0	 37.0	 -37.0	 1.035	 71.0	 1	 73	 23.0; % NG
	365	 88.0	 0.0	 78.0	 -78.0	 1.035	 47.8	 1	 156	 20.0; % NG
	365	 45.0	 0.0	 35.0	 -35.0	 1.035	 47.8	 1	 70	 20.0; % NG
	368	 5.25	 0.0	 7.2	 -7.2	 1.035	 1.9	 1	 10	 0.5; % PEL
	382	 19.25	 0.0	 16.0	 -16.0	 1.035	 55.9	 1	 31	 7.5; % NG
	382	 179.5	 0.0	 150.0	 -150.0	 1.035	 255.9	 1	 299	 60.0; % NG
	383	 20.25	 0.0	 17.0	 -17.0	 1.035	 55.9	 1	 33	 7.5; % PEL
	386	 5.625	 0.0	 10.8	 -10.8	 1.035	 4.8	 1	 10	 1.25; % NG
	395	 7.75	 0.0	 8.0	 -8.0	 1.035	 1.9	 1	 15	 0.5; % PEL
	421	 39.5	 0.0	 39.0	 -39.0	 1.035	 7.7	 1	 77	 2.0; % NG
	426	 15.75	 0.0	 15.0	 -15.0	 1.035	 4.5	 1	 30	 1.5; % PEL
	431	 27.75	 0.0	 27.0	 -27.0	 1.035	 13.6	 1	 53	 2.5; % NG
	440	 16.5	 0.0	 19.2	 -19.2	 1.035	 3.6	 1	 32	 1.0; % COW
	447	 10.375	 5.0	 20.0	 -10.0	 1.035	 21.3	 1	 19	 1.75; % PEL
	447	 8.875	 6.0	 20.0	 -8.0	 1.035	 21.3	 1	 16	 1.75; % NG
	463	 0.0	 0.0	 8.4	 -8.4	 1.035	 4.0	 1	 0	 0.0; % SYNC
	482	 15.85	 0.0	 22.8	 -22.8	 1.035	 1.7	 1	 31	 0.7; % PEL
	490	 23.75	 0.0	 23.0	 -23.0	 1.035	 5.3	 1	 46	 1.5; % NG
	522	 0.0	 -0.1	 1.0	 -1.2	 1.035	 1.9	 1	 0	 0.0; % SYNC
	533	 11.125	 0.0	 11.0	 -11.0	 1.035	 1.9	 1	 22	 0.25; % PEL
	534	 31.9725	 0.0	 23.0	 -23.0	 1.035	 53.9	 1	 46	 17.945; % NG
	534	 24.0215	 0.0	 19.0	 -19.0	 1.035	 34.9	 1	 37	 11.043; % NG
	534	 34.5215	 0.0	 29.0	 -29.0	 1.035	 34.9	 1	 58	 11.043; % NG
	534	 101.61725	 0.0	 84.0	 -84.0	 1.035	 105.9	 1	 167	 36.2345; % NG
	534	 72.61725	 0.0	 55.0	 -55.0	 1.035	 105.9	 1	 109	 36.2345; % PEL
	535	 44.64325	 0.0	 39.0	 -39.0	 1.035	 36.5	 1	 77	 12.2865; % NG
	535	 47.95125	 0.0	 42.0	 -42.0	 1.035	 35.6	 1	 84	 11.9025; % NG
	535	 87.4975	 0.0	 64.0	 -64.0	 1.035	 126.2	 1	 127	 47.995; % PEL
	535	 91.65775	 0.0	 72.0	 -72.0	 1.035	 106.4	 1	 143	 40.3155; % NG
	549	 10.75	 0.0	 11.0	 -11.0	 1.035	 1.7	 1	 21	 0.5; % PEL
	557	 45.931	 0.0	 40.0	 -40.0	 1.035	 34.4	 1	 79	 12.862; % NG
	557	 27.796	 0.0	 23.0	 -23.0	 1.035	 28.5	 1	 45	 10.592; % PEL
	557	 32.41775	 0.0	 28.0	 -28.0	 1.035	 26.5	 1	 55	 9.8355; % PEL
	557	 31.17425	 0.0	 26.0	 -26.0	 1.035	 30.4	 1	 51	 11.3485; % PEL
	557	 48.931	 0.0	 43.0	 -43.0	 1.035	 34.4	 1	 85	 12.862; % PEL
	558	 43.258	 0.0	 36.0	 -36.0	 1.035	 34.4	 1	 71	 15.516; % PEL
	558	 52.258	 0.0	 45.0	 -45.0	 1.035	 34.4	 1	 89	 15.516; % NG
	558	 79.70425	 0.0	 74.0	 -74.0	 1.035	 26.5	 1	 148	 11.4085; % NG
	558	 35.02975	 0.0	 28.0	 -28.0	 1.035	 34.4	 1	 55	 15.0595; % NG
	581	 32.75	 0.0	 32.0	 -32.0	 1.035	 5.3	 1	 64	 1.5; % NG
	594	 8.5175	 0.0	 8.0	 -8.0	 1.035	 4.4	 1	 16	 1.035; % PEL
	601	 20.0125	 0.0	 19.0	 -19.0	 1.035	 4.4	 1	 38	 2.025; % NG
	622	 106.0	 0.0	 79.0	 -79.0	 1.035	 114.0	 1	 157	 55.0; % NG
	622	 0.0	 0.0	 30.0	 0.0	 1.035	 65.3	 0	 0	 0.0; % SYNC
	626	 8.5625	 0.0	 16.8	 -16.8	 1.035	 2.4	 1	 16	 1.125; % PEL
	630	 19.125	 0.0	 18.0	 -18.0	 1.035	 5.2	 1	 36	 2.25; % NG
	631	 13.85	 0.0	 13.0	 -13.0	 1.035	 6.0	 1	 25	 2.7; % NG
	655	 21.2025	 0.0	 21.0	 -21.0	 1.035	 0.9	 1	 42	 0.405; % PEL
	660	 161.25	 0.0	 128.0	 -128.0	 1.035	 255.0	 1	 255	 67.5; % NG
	661	 219.75	 0.0	 186.0	 -186.0	 1.035	 255.0	 1	 372	 67.5; % NG
	667	 5.4725	 0.0	 10.8	 -10.8	 1.035	 2.0	 1	 10	 0.945; % PEL
	671	 14.4125	 0.0	 13.0	 -13.0	 1.035	 8.6	 1	 25	 3.825; % COW
	673	 7.675	 0.0	 7.2	 -7.2	 1.035	 4.4	 1	 14	 1.35; % PEL
	681	 225.5	 0.0	 178.0	 -178.0	 1.035	 192.4	 1	 356	 95.0; % COW
	681	 80.7495	 0.0	 75.0	 -75.0	 1.035	 77.5	 1	 149	 12.499; % NG
	687	 23.75	 0.0	 22.0	 -22.0	 1.035	 10.1	 1	 43	 4.5; % PEL
	699	 26.35	 0.0	 25.0	 -25.0	 1.035	 6.0	 1	 50	 2.7; % NG
	702	 7.725	 0.0	 8.0	 -8.0	 1.035	 1.3	 1	 15	 0.45; % PEL
	712	 9.75	 0.0	 8.0	 -8.0	 1.035	 9.2	 1	 15	 4.5; % NG
	718	 6.36	 0.0	 13.2	 -13.2	 1.035	 1.5	 1	 12	 0.72; % NG
	722	 7.5625	 0.0	 7.0	 -7.0	 1.035	 2.4	 1	 14	 1.125; % PEL
	731	 6.3375	 0.0	 9.6	 -9.6	 1.035	 4.3	 1	 12	 0.675; % PEL
	736	 104.5	 24.0	 120.0	 -72.0	 1.035	 255.0	 1	 144	 65.0; % NG
	740	 7.45	 0.0	 7.2	 -7.2	 1.035	 4.3	 1	 14	 0.9; % PEL
	747	 8.67	 0.0	 26.4	 -26.4	 1.035	 5.4	 1	 15	 2.34; % NG
	759	 70.5	 0.0	 48.0	 -48.0	 1.035	 105.2	 1	 96	 45.0; % NG
	760	 0.0	 0.0	 0.0	 0.0	 1.035	 1.3	 0	 0	 0.0; % SYNC
	778	 29.75	 1.0	 30.0	 -28.0	 1.035	 31.3	 1	 55	 4.5; % NG
	780	 15.315	 0.0	 15.0	 -15.0	 1.035	 1.4	 1	 30	 0.63; % PEL
	783	 27.0	 0.0	 26.0	 -26.0	 1.035	 6.7	 1	 51	 3.0; % NG
	788	 13.5	 0.0	 34.8	 -34.8	 1.035	 95.9	 1	 26	 1.0; % PEL
	792	 0.0	 0.0	 23.0	 0.0	 1.035	 71.8	 0	 0	 0.0; % SYNC
	792	 0.0	 0.0	 23.0	 0.0	 1.035	 71.8	 0	 0	 0.0; % SYNC
	792	 0.0	 0.0	 11.0	 0.0	 1.035	 23.7	 0	 0	 0.0; % SYNC
	792	 0.0	 0.0	 10.0	 0.0	 1.035	 23.3	 0	 0	 0.0; % SYNC
	803	 12.0	 0.0	 12.0	 -12.0	 1.035	 55.9	 1	 24	 0.0; % NG
	804	 10.0	 0.0	 16.8	 -16.8	 1.035	 120.4	 1	 20	 0.0; % PEL
	809	 0.0	 0.0	 0.0	 0.0	 1.035	 3.3	 0	 0	 0.0; % SYNC
	815	 6.175	 0.0	 6.0	 -6.0	 1.035	 3.1	 1	 11	 1.35; % PEL
	834	 7.725	 0.0	 19.2	 -19.2	 1.035	 1.5	 1	 15	 0.45; % PEL
	840	 38.25	 0.0	 32.0	 -32.0	 1.035	 51.3	 1	 64	 12.5; % PEL
	840	 30.25	 0.0	 24.0	 -24.0	 1.035	 51.3	 1	 48	 12.5; % NG
	844	 6.975	 0.0	 7.0	 -7.0	 1.035	 3.5	 1	 13	 0.95; % PEL
	848	 16.75275	 0.0	 16.0	 -16.0	 1.035	 5.6	 1	 32	 1.5055; % NG
	854	 30.25	 0.0	 29.0	 -29.0	 1.035	 14.5	 1	 57	 3.5; % PEL
	873	 145.5	 0.0	 129.0	 -129.0	 1.035	 87.7	 1	 257	 34.0; % PEL
	876	 0.0	 0.0	 0.0	 0.0	 1.035	 1.9	 0	 0	 0.0; % SYNC
	896	 0.0	 0.0	 45.0	 -10.0	 1.035	 65.8	 0	 0	 0.0; % SYNC
	896	 0.0	 0.0	 45.0	 -10.0	 1.035	 71.1	 0	 0	 0.0; % SYNC
	896	 120.0	 0.0	 110.0	 -110.0	 1.035	 71.1	 1	 220	 20.0; % NG
	902	 13.52775	 0.0	 14.0	 -14.0	 1.035	 0.3	 1	 27	 0.0555; % NG
...
];

%% generator cost data
%	2	startup	shutdown	n	c(n-1)	...	c0
mpc.gencost = [
	2	 0.0	 0.0	 3	   0.000000	 112.780000	   0.000000; % COW
	2	 0.0	 0.0	 3	   0.000000	 112.780000	   0.000000; % NG
	2	 0.0	 0.0	 3	   0.000000	  76.100000	   0.000000; % NG
	2	 0.0	 0.0	 3	   0.000000	  76.100000	   0.000000; % COW
	2	 0.0	 0.0	 3	   0.000000	  76.100000	   0.000000; % NG
	2	 0.0	 0.0	 3	   0.000000	  76.100000	   0.000000; % COW
	2	 0.0	 0.0	 3	   0.000000	  76.100000	   0.000000; % COW
	2	 0.0	 0.0	 3	   0.000000	  76.100000	   0.000000; % NUC
	2	 0.0	 0.0	 3	   0.000000	  76.100000	   0.000000; % COW
	2	 0.0	 0.0	 3	   0.000000	  76.100000	   0.000000; % COW
	2	 0.0	 0.0	 3	   0.000000	  76.100000	   0.000000; % NG
	2	 0.0	 0.0	 3	   0.000000	  76.100000	   0.000000; % COW
	2	 0.0	 0.0	 3	   0.000000	  76.100000	   0.000000; % NG
	2	 0.0	 0.0	 3	   0.000000	 102.050000	   0.000000; % NG
	2	 0.0	 0.0	 3	   0.000000	 102.050000	   0.000000; % NG
	2	 0.0	 0.0	 3	   0.000000	 102.050000	   0.000000; % NG
	2	 0.0	 0.0	 3	   0.000000	 102.050000	   0.000000; % NG
	2	 0.0	 0.0	 3	   0.000000	 102.050000	   0.000000; % NG
	2	 0.0	 0.0	 3	   0.000000	 102.050000	   0.000000; % NG
	2	 0.0	 0.0	 3	   0.000000	 102.050000	   0.000000; % NG
	2	 0.0	 0.0	 3	   0.000000	 102.050000	   0.000000; % COW
	2	 0.0	 0.0	 3	   0.000000	 105.350000	   0.000000; % NG
	2	 0.0	 0.0	 3	   0.000000	 105.350000	   0.000000; % COW
	2	 0.0	 0.0	 3	   0.000000	 105.350000	   0.000000; % NG
	2	 0.0	 0.0	 3	   0.000000	 105.350000	   0.000000; % NG
	2	 0.0	 0.0	 3	   0.000000	 105.350000	   0.000000; % COW
	2	 0.0	 0.0	 3	   0.000000	 105.350000	   0.000000; % NG
	2	 0.0	 0.0	 3	   0.000000	 105.350000	   0.000000; % NG
	2	 0.0	 0.0	 3	   0.000000	   0.000000	   0.000000; % NG
	2	 0.0	 0.0	 3	   0.000000	  95.310000	   0.000000; % NG
	2	 0.0	 0.0	 3	   0.000000	  95.310000	   0.000000; % NG
	2	 0.0	 0.0	 3	   0.000000	  95.310000	   0.000000; % NG
	2	 0.0	 0.0	 3	   0.000000	  95.310000	   0.000000; % NG
	2	 0.0	 0.0	 3	   0.000000	  95.310000	   0.000000; % NG
	2	 0.0	 0.0	 3	   0.000000	  90.030000	   0.000000; % COW
	2	 0.0	 0.0	 3	   0.000000	  90.030000	   0.000000; % NG
	2	 0.0	 0.0	 3	   0.000000	  92.780000	   0.000000; % NG
	2	 0.0	 0.0	 3	   0.000000	  92.780000	   0.000000; % NG
	2	 0.0	 0.0	 3	   0.000000	  94.090000	   0.000000; % COW
	2	 0.0	 0.0	 3	   0.000000	  94.090000	   0.000000; % NG
	2	 0.0	 0.0	 3	   0.000000	  97.120000	   0.000000; % COW
	2	 0.0	 0.0	 3	   0.000000	  97.120000	   0.000000; % COW
	2	 0.0	 0.0	 3	   0.000000	  99.520000	   0.000000; % NG
	2	 0.0	 0.0	 3	   0.000000	  91.160000	   0.000000; % NG
	2	 0.0	 0.0	 3	   0.000000	  91.160000	   0.000000; % COW
	2	 0.0	 0.0	 3	   0.000000	  91.160000	   0.000000; % NG
	2	 0.0	 0.0	 3	   0.000000	  91.160000	   0.000000; % NG
	2	 0.0	 0.0	 3	   0.000000	  91.160000	   0.000000; % NG
	2	 0.0	 0.0	 3	   0.000000	   0.010000	   0.000000; % SYNC
	2	 0.0	 0.0	 3	   0.000000	   0.010000	   0.000000; % SYNC
	2	 0.0	 0.0	 3	   0.000000	   0.010000	   0.000000; % SYNC
	2	 0.0	 0.0	 3	   0.000000	   0.010000	   0.000000; % SYNC
	2	 0.0	 0.0	 3	   0.000000	  92.430000	   0.000000; % NG
	2	 0.0	 0.0	 3	   0.000000	  92.430000	   0.000000; % NG
	2	 0.0	 0.0	 3	   0.000000	  92.430000	   0.000000; % NG
	2	 0.0	 0.0	 3	   0.000000	  96.420000	   0.000000; % NG
	2	 0.0	 0.0	 3	   0.000000	  96.420000	   0.000000; % NG
	2	 0.0	 0.0	 3	   0.000000	  96.420000	   0.000000; % NG
	2	 0.0	 0.0	 3	   0.000000	 116.010000	   0.000000; % NG
	2	 0.0	 0.0	 3	   0.000000	 116.010000	   0.000000; % NG
	2	 0.0	 0.0	 3	   0.000000	 116.010000	   0.000000; % NG
	2	 0.0	 0.0	 3	   0.000000	 116.010000	   0.000000; % NG
	2	 0.0	 0.0	 3	   0.000000	 116.010000	   0.000000; % NG
	2	 0.0	 0.0	 3	   0.000000	 116.010000	   0.000000; % COW
	2	 0.0	 0.0	 3	   0.000000	 116.010000	   0.000000; % NG
	2	 0.0	 0.0	 3	   0.000000	  98.840000	   0.000000; % NG
	2	 0.0	 0.0	 3	   0.000000	  98.840000	   0.000000; % COW
	2	 0.0	 0.0	 3	   0.000000	  98.840000	   0.000000; % COW
	2	 0.0	 0.0	 3	   0.000000	  98.840000	   0.000000; % NG
	2	 0.0	 0.0	 3	   0.000000	  98.840000	   0.000000; % NG
	2	 0.0	 0.0	 3	   0.000000	  98.840000	   0.000000; % NG
	2	 0.0	 0.0	 3	   0.000000	  98.840000	   0.000000; % NG
	2	 0.0	 0.0	 3	   0.000000	  98.840000	   0.000000; % NG
	2	 0.0	 0.0	 3	   0.000000	  98.840000	   0.000000; % COW
	2	 0.0	 0.0	 3	   0.000000	  89.220000	   0.000000; % NG
	2	 0.0	 0.0	 3	   0.000000	  89.220000	   0.000000; % COW
	2	 0.0	 0.0	 3	   0.000000	  89.220000	   0.000000; % NG
	2	 0.0	 0.0	 3	   0.000000	  89.220000	   0.000000; % NG
	2	 0.0	 0.0	 3	   0.000000	   0.010000	   0.000000; % SYNC
	2	 0.0	 0.0	 3	   0.000000	   0.010000	   0.000000; % SYNC
	2	 0.0	 0.0	 3	   0.000000	   0.010000	   0.000000; % SYNC
	2	 0.0	 0.0	 3	   0.000000	   0.010000	   0.000000; % SYNC
	2	 0.0	 0.0	 3	   0.000000	   0.000000	   0.000000; % NG
	2	 0.0	 0.0	 3	   0.000000	   0.000000	   0.000000; % PEL
	2	 0.0	 0.0	 3	   0.000000	   0.000000	   0.000000; % NG
	2	 0.0	 0.0	 3	   0.000000	   0.000000	   0.000000; % NG
	2	 0.0	 0.0	 3	   0.000000	   0.000000	   0.000000; % NG
	2	 0.0	 0.0	 3	   0.000000	   0.000000	   0.000000; % NG
	2	 0.0	 0.0	 3	   0.000000	   0.000000	   0.000000; % NG
	2	 0.0	 0.0	 3	   0.000000	  76.100000	   0.000000; % NG
	2	 0.0	 0.0	 3	   0.000000	   0.000000	   0.000000; % PEL
	2	 0.0	 0.0	 3	   0.000000	   0.000000	   0.000000; % PEL
	2	 0.0	 0.0	 3	   0.000000	   0.000000	   0.000000; % NG
	2	 0.0	 0.0	 3	   0.000000	   0.000000	   0.000000; % NG
	2	 0.0	 0.0	 3	   0.000000	   0.000000	   0.000000; % NG
	2	 0.0	 0.0	 3	   0.000000	   0.000000	   0.000000; % NG
	2	 0.0	 0.0	 3	   0.000000	   0.000000	   0.000000; % NG
	2	 0.0	 0.0	 3	   0.000000	   0.000000	   0.000000; % PEL
	2	 0.0	 0.0	 3	   0.000000	   0.000000	   0.000000; % NG
	2	 0.0	 0.0	 3	   0.000000	   0.000000	   0.000000; % NG
	2	 0.0	 0.0	 3	   0.000000	   0.000000	   0.000000; % NG
	2	 0.0	 0.0	 3	   0.000000	   0.000000	   0.000000; % PEL
	2	 0.0	 0.0	 3	   0.000000	   0.000000	   0.000000; % PEL
	2	 0.0	 0.0	 3	   0.000000	   0.000000	   0.000000; % COW
	2	 0.0	 0.0	 3	   0.000000	   0.000000	   0.000000; % NG
	2	 0.0	 0.0	 3	   0.000000	   0.000000	   0.000000; % PEL
	2	 0.0	 0.0	 3	   0.000000	   0.000000	   0.000000; % NG
	2	 0.0	 0.0	 3	   0.000000	   0.000000	   0.000000; % COW
	2	 0.0	 0.0	 3	   0.000000	   0.000000	   0.000000; % SYNC
	2	 0.0	 0.0	 3	   0.000000	   0.000000	   0.000000; % NG
	2	 0.0	 0.0	 3	   0.000000	   0.000000	   0.000000; % NG
	2	 0.0	 0.0	 3	   0.000000	   0.000000	   0.000000; % NG
	2	 0.0	 0.0	 3	   0.000000	   0.000000	   0.000000; % PEL
	2	 0.0	 0.0	 3	   0.000000	 112.780000	   0.000000; % NG
	2	 0.0	 0.0	 3	   0.000000	 112.780000	   0.000000; % NG
	2	 0.0	 0.0	 3	   0.000000	 112.780000	   0.000000; % PEL
	2	 0.0	 0.0	 3	   0.000000	   0.000000	   0.000000; % NG
	2	 0.0	 0.0	 3	   0.000000	   0.000000	   0.000000; % PEL
	2	 0.0	 0.0	 3	   0.000000	   0.000000	   0.000000; % NG
	2	 0.0	 0.0	 3	   0.000000	   0.000000	   0.000000; % PEL
	2	 0.0	 0.0	 3	   0.000000	   0.000000	   0.000000; % NG
	2	 0.0	 0.0	 3	   0.000000	   0.000000	   0.000000; % COW
	2	 0.0	 0.0	 3	   0.000000	   0.000000	   0.000000; % PEL
	2	 0.0	 0.0	 3	   0.000000	   0.000000	   0.000000; % NG
	2	 0.0	 0.0	 3	   0.000000	   0.000000	   0.000000; % SYNC
	2	 0.0	 0.0	 3	   0.000000	   0.000000	   0.000000; % PEL
	2	 0.0	 0.0	 3	   0.000000	   0.000000	   0.000000; % NG
	2	 0.0	 0.0	 3	   0.000000	   0.000000	   0.000000; % SYNC
	2	 0.0	 0.0	 3	   0.000000	   0.000000	   0.000000; % PEL
	2	 0.0	 0.0	 3	   0.000000	   0.000000	   0.000000; % NG
	2	 0.0	 0.0	 3	   0.000000	   0.000000	   0.000000; % NG
	2	 0.0	 0.0	 3	   0.000000	   0.000000	   0.000000; % NG
	2	 0.0	 0.0	 3	   0.000000	   0.000000	   0.000000; % NG
	2	 0.0	 0.0	 3	   0.000000	   0.000000	   0.000000; % PEL
	2	 0.0	 0.0	 3	   0.000000	   0.000000	   0.000000; % NG
	2	 0.0	 0.0	 3	   0.000000	   0.000000	   0.000000; % NG
	2	 0.0	 0.0	 3	   0.000000	   0.000000	   0.000000; % PEL
	2	 0.0	 0.0	 3	   0.000000	   0.000000	   0.000000; % NG
	2	 0.0	 0.0	 3	   0.000000	   0.000000	   0.000000; % PEL
	2	 0.0	 0.0	 3	   0.000000	   0.000000	   0.000000; % NG
	2	 0.0	 0.0	 3	   0.000000	   0.000000	   0.000000; % PEL
	2	 0.0	 0.0	 3	   0.000000	   0.000000	   0.000000; % PEL
	2	 0.0	 0.0	 3	   0.000000	   0.000000	   0.000000; % PEL
	2	 0.0	 0.0	 3	   0.000000	   0.000000	   0.000000; % PEL
	2	 0.0	 0.0	 3	   0.000000	   0.000000	   0.000000; % PEL
	2	 0.0	 0.0	 3	   0.000000	   0.000000	   0.000000; % NG
	2	 0.0	 0.0	 3	   0.000000	   0.000000	   0.000000; % NG
	2	 0.0	 0.0	 3	   0.000000	   0.000000	   0.000000; % NG
	2	 0.0	 0.0	 3	   0.000000	   0.000000	   0.000000; % NG
	2	 0.0	 0.0	 3	   0.000000	   0.000000	   0.000000; % PEL
	2	 0.0	 0.0	 3	   0.000000	   0.000000	   0.000000; % NG
	2	 0.0	 0.0	 3	   0.000000	   0.000000	   0.000000; % NG
	2	 0.0	 0.0	 3	   0.000000	   0.000000	   0.000000; % SYNC
	2	 0.0	 0.0	 3	   0.000000	   0.000000	   0.000000; % PEL
	2	 0.0	 0.0	 3	   0.000000	   0.000000	   0.000000; % NG
	2	 0.0	 0.0	 3	   0.000000	   0.000000	   0.000000; % NG
	2	 0.0	 0.0	 3	   0.000000	   0.000000	   0.000000; % PEL
	2	 0.0	 0.0	 3	   0.000000	 102.050000	   0.000000; % NG
	2	 0.0	 0.0	 3	   0.000000	 102.050000	   0.000000; % NG
	2	 0.0	 0.0	 3	   0.000000	   0.000000	   0.000000; % PEL
	2	 0.0	 0.0	 3	   0.000000	   0.000000	   0.000000; % COW
	2	 0.0	 0.0	 3	   0.000000	   0.000000	   0.000000; % PEL
	2	 0.0	 0.0	 3	   0.000000	   0.000000	   0.000000; % COW
	2	 0.0	 0.0	 3	   0.000000	   0.000000	   0.000000; % NG
	2	 0.0	 0.0	 3	   0.000000	   0.000000	   0.000000; % PEL
	2	 0.0	 0.0	 3	   0.000000	   0.000000	   0.000000; % NG
	2	 0.0	 0.0	 3	   0.000000	   0.000000	   0.000000; % PEL
	2	 0.0	 0.0	 3	   0.000000	   0.000000	   0.000000; % NG
	2	 0.0	 0.0	 3	   0.000000	   0.000000	   0.000000; % NG
	2	 0.0	 0.0	 3	   0.000000	   0.000000	   0.000000; % PEL
	2	 0.0	 0.0	 3	   0.000000	   0.000000	   0.000000; % PEL
	2	 0.0	 0.0	 3	   0.000000	 105.350000	   0.000000; % NG
	2	 0.0	 0.0	 3	   0.000000	   0.000000	   0.000000; % PEL
	2	 0.0	 0.0	 3	   0.000000	   0.000000	   0.000000; % NG
	2	 0.0	 0.0	 3	   0.000000	   0.000000	   0.000000; % NG
	2	 0.0	 0.0	 3	   0.000000	   0.000000	   0.000000; % SYNC
	2	 0.0	 0.0	 3	   0.000000	   0.000000	   0.000000; % NG
	2	 0.0	 0.0	 3	   0.000000	   0.000000	   0.000000; % PEL
	2	 0.0	 0.0	 3	   0.000000	   0.000000	   0.000000; % NG
	2	 0.0	 0.0	 3	   0.000000	   0.000000	   0.000000; % PEL
	2	 0.0	 0.0	 3	   0.000000	   0.010000	   0.000000; % SYNC
	2	 0.0	 0.0	 3	   0.000000	   0.010000	   0.000000; % SYNC
	2	 0.0	 0.0	 3	   0.000000	   0.010000	   0.000000; % SYNC
	2	 0.0	 0.0	 3	   0.000000	   0.010000	   0.000000; % SYNC
	2	 0.0	 0.0	 3	   0.000000	 111.630000	   0.000000; % NG
	2	 0.0	 0.0	 3	   0.000000	 111.630000	   0.000000; % PEL
	2	 0.0	 0.0	 3	   0.000000	   0.000000	   0.000000; % SYNC
	2	 0.0	 0.0	 3	   0.000000	   0.000000	   0.000000; % PEL
	2	 0.0	 0.0	 3	   0.000000	   0.000000	   0.000000; % PEL
	2	 0.0	 0.0	 3	   0.000000	   0.000000	   0.000000; % PEL
	2	 0.0	 0.0	 3	   0.000000	   0.000000	   0.000000; % NG
	2	 0.0	 0.0	 3	   0.000000	   0.000000	   0.000000; % PEL
	2	 0.0	 0.0	 3	   0.000000	   0.000000	   0.000000; % NG
	2	 0.0	 0.0	 3	   0.000000	   0.000000	   0.000000; % PEL
	2	 0.0	 0.0	 3	   0.000000	   0.000000	   0.000000; % PEL
	2	 0.0	 0.0	 3	   0.000000	   0.000000	   0.000000; % SYNC
	2	 0.0	 0.0	 3	   0.000000	   0.000000	   0.000000; % SYNC
	2	 0.0	 0.0	 3	   0.000000	   0.000000	   0.000000; % SYNC
	2	 0.0	 0.0	 3	   0.000000	   0.000000	   0.000000; % NG
	2	 0.0	 0.0	 3	   0.000000	   0.000000	   0.000000; % NG
...
];

%% branch data
%	fbus	tbus	r	x	b	rateA	rateB	rateC	ratio	angle	status	angmin	angmax
mpc.branch = [
	7	 8	 0.00064	 0.0305	 0.0	 400.0	 400.0	 400.0	 1.0435	 0.6	 1	 -30.0	 30.0;
	26	 28	 0.00036	 0.02519	 0.0	 500.0	 500.0	 500.0	 1.0627	 0.0	 1	 -30.0	 30.0;
	27	 29	 0.00036	 0.02519	 0.0	 500.0	 500.0	 500.0	 1.0623	 0.0	 1	 -30.0	 30.0;
	40	 42	 0.00034	 0.02097	 0.0	 500.0	 500.0	 500.0	 1.1011	 0.0	 1	 -30.0	 30.0;
	43	 46	 0.00034	 0.02097	 0.0	 500.0	 500.0	 500.0	 1.0733	 0.0	 1	 -30.0	 30.0;
	55	 57	 0.00081	 0.03	 0.0	 400.0	 400.0	 400.0	 1.0547	 0.0	 1	 -30.0	 30.0;
	90	 92	 0.00075	 0.02444	 -0.00832	 330.0	 330.0	 330.0	 1.0508	 0.0	 1	 -30.0	 30.0;
	91	 93	 0.00075	 0.02469	 -0.008	 330.0	 330.0	 330.0	 1.0499	 0.0	 1	 -30.0	 30.0;
	125	 128	 0.0005	 0.02875	 -0.016	 400.0	 400.0	 400.0	 1.0677	 0.0	 1	 -30.0	 30.0;
	149	 150	 0.00064	 0.0305	 0.0	 400.0	 400.0	 400.0	 1.0568	 0.0	 1	 -30.0	 30.0;
	155	 158	 0.000232	 0.023	 0.0	 500.0	 500.0	 500.0	 1.049	 0.0	 1	 -30.0	 30.0;
	156	 159	 0.000232	 0.023	 0.0	 500.0	 500.0	 500.0	 1.0479	 0.0	 1	 -30.0	 30.0;
	170	 172	 0.00035	 0.02375	 0.0	 500.0	 500.0	 500.0	 1.195	 0.0	 1	 -30.0	 30.0;
	183	 184	 0.00059	 0.03093	 0.0	 400.0	 400.0	 400.0	 1.0847	 0.0	 1	 -30.0	 30.0;
	190	 192	 0.0004	 0.03	 0.0	 500.0	 500.0	 500.0	 1.0485	 0.0	 1	 -30.0	 30.0;
	2735	 158	 0.00031	 0.00338	 0.0992	 1386.0	 1386.0	 1386.0	 0.0	 0.0	 1	 -30.0	 30.0;
	2735	 159	 0.00031	 0.00338	 0.0992	 1386.0	 1386.0	 1386.0	 0.0	 0.0	 1	 -30.0	 30.0;
	2736	 68	 0.014341	 0.083531	 0.126034	 415.0	 415.0	 415.0	 0.0	 0.0	 1	 -30.0	 30.0;
	2734	 76	 0.01219	 0.070659	 0.117418	 412.0	 412.0	 412.0	 0.0	 0.0	 1	 -30.0	 30.0;
	2734	 105	 0.011781	 0.07087	 0.116838	 412.0	 412.0	 412.0	 0.0	 0.0	 1	 -30.0	 30.0;
	2739	 200	 1e-05	 9e-05	 0.0	 924.0	 924.0	 924.0	 0.0	 0.0	 1	 -30.0	 30.0;
	128	 2732	 0.0015	 0.01469	 0.40384	 1386.0	 1386.0	 1386.0	 0.0	 0.0	 0	 -30.0	 30.0;
	127	 2733	 0.001419	 0.014675	 0.4896	 1386.0	 1386.0	 1386.0	 0.0	 0.0	 1	 -30.0	 30.0;
	2737	 148	 0.001651	 0.015909	 0.046948	 373.0	 373.0	 373.0	 0.0	 0.0	 1	 -30.0	 30.0;
	2737	 149	 0.001651	 0.015909	 0.046948	 373.0	 373.0	 373.0	 0.0	 0.0	 1	 -30.0	 30.0;
	2738	 48	 0.00188	 0.02287	 0.6432	 831.0	 831.0	 831.0	 0.0	 0.0	 1	 -30.0	 30.0;
	2738	 49	 0.00188	 0.02287	 0.6432	 831.0	 831.0	 831.0	 0.0	 0.0	 1	 -30.0	 30.0;
	82	 2732	 0.003519	 0.039313	 1.0336	 1621.0	 1621.0	 1621.0	 0.0	 0.0	 1	 -30.0	 30.0;
	43	 23	 0.01345	 0.081141	 0.141134	 339.0	 339.0	 339.0	 0.0	 0.0	 1	 -30.0	 30.0;
	26	 90	 0.009091	 0.062401	 0.111417	 457.0	 457.0	 457.0	 0.0	 0.0	 1	 -30.0	 30.0;
	27	 91	 0.00868	 0.06405	 0.096994	 457.0	 457.0	 457.0	 0.0	 0.0	 1	 -30.0	 30.0;
	146	 30	 0.016961	 0.123659	 0.196988	 373.0	 373.0	 373.0	 0.0	 0.0	 1	 -30.0	 30.0;
	135	 34	 0.00512	 0.02618	 0.029621	 335.0	 335.0	 335.0	 0.0	 0.0	 1	 -30.0	 30.0;
	134	 20	 0.01068	 0.061961	 0.094961	 415.0	 415.0	 415.0	 0.0	 0.0	 1	 -30.0	 30.0;
	165	 21	 0.014651	 0.105891	 0.170852	 373.0	 373.0	 373.0	 0.0	 0.0	 1	 -30.0	 30.0;
	41	 109	 0.01488	 0.08161	 0.114805	 347.0	 347.0	 347.0	 0.0	 0.0	 1	 -30.0	 30.0;
	40	 91	 0.011159	 0.07231	 0.103673	 362.0	 362.0	 362.0	 0.0	 0.0	 1	 -30.0	 30.0;
	179	 83	 0.008616	 0.077645	 0.122239	 373.0	 373.0	 373.0	 0.0	 0.0	 1	 -30.0	 30.0;
	203	 166	 0.01176	 0.068289	 0.102802	 362.0	 362.0	 362.0	 0.0	 0.0	 1	 -30.0	 30.0;
	194	 166	 0.016818	 0.089091	 0.129935	 400.0	 400.0	 400.0	 0.0	 0.0	 1	 -30.0	 30.0;
	193	 165	 0.013843	 0.087025	 0.134842	 427.0	 427.0	 427.0	 0.0	 0.0	 1	 -30.0	 30.0;
	207	 168	 0.01676	 0.097169	 0.148685	 274.0	 274.0	 274.0	 0.0	 0.0	 1	 -30.0	 30.0;
	43	 12	 0.01269	 0.074979	 0.130196	 377.0	 377.0	 377.0	 0.0	 0.0	 1	 -30.0	 30.0;
	198	 18	 0.014091	 0.10413	 0.15972	 373.0	 373.0	 373.0	 0.0	 0.0	 1	 -30.0	 30.0;
	100	 55	 0.003719	 0.0438	 0.100962	 457.0	 457.0	 457.0	 0.0	 0.0	 1	 -30.0	 30.0;
	163	 82	 0.00194	 0.02056	 0.51584	 1316.0	 1316.0	 1316.0	 0.0	 0.0	 1	 -30.0	 30.0;
	45	 9	 0.0015	 0.01506	 0.4032	 1386.0	 1386.0	 1386.0	 0.0	 0.0	 1	 -30.0	 30.0;
	185	 151	 0.00294	 0.03463	 0.9216	 693.0	 693.0	 693.0	 0.0	 0.0	 1	 -30.0	 30.0;
	121	 57	 0.00169	 0.01994	 0.50624	 831.0	 831.0	 831.0	 0.0	 0.0	 1	 -30.0	 30.0;
	29	 93	 0.00137	 0.01625	 0.41184	 1386.0	 1386.0	 1386.0	 0.0	 0.0	 1	 -30.0	 30.0;
	28	 123	 0.00231	 0.02769	 0.70144	 1386.0	 1386.0	 1386.0	 0.0	 0.0	 1	 -30.0	 30.0;
	25	 192	 0.00207	 0.02474	 0.664	 831.0	 831.0	 831.0	 0.0	 0.0	 1	 -30.0	 30.0;
	120	 64	 0.0015	 0.01788	 0.4512	 831.0	 831.0	 831.0	 0.0	 0.0	 1	 -30.0	 30.0;
	122	 65	 0.00469	 0.05544	 1.4048	 831.0	 831.0	 831.0	 0.0	 0.0	 0	 -30.0	 30.0;
	82	 31	 0.00331	 0.03425	 0.85888	 1150.0	 1150.0	 1150.0	 0.0	 0.0	 1	 -30.0	 30.0;
	92	 28	 0.00219	 0.02369	 0.59584	 1316.0	 1316.0	 1316.0	 0.0	 0.0	 1	 -30.0	 30.0;
	10	 4	 0.01674	 0.09711	 0.144232	 461.0	 461.0	 461.0	 0.0	 0.0	 1	 -30.0	 30.0;
	30	 11	 0.0057	 0.0407	 0.06021	 373.0	 373.0	 373.0	 0.0	 0.0	 1	 -30.0	 30.0;
	33	 4	 0.004419	 0.032229	 0.049852	 392.0	 392.0	 392.0	 0.0	 0.0	 1	 -30.0	 30.0;
	17	 7	 0.014591	 0.11219	 0.165528	 427.0	 427.0	 427.0	 0.0	 0.0	 1	 -30.0	 30.0;
	21	 10	 0.01211	 0.087419	 0.140166	 373.0	 373.0	 373.0	 0.0	 0.0	 1	 -30.0	 30.0;
	26	 5	 0.009773	 0.050516	 0.088959	 377.0	 377.0	 377.0	 0.0	 0.0	 1	 -30.0	 30.0;
	17	 3	 0.01068	 0.07895	 0.122597	 274.0	 274.0	 274.0	 0.0	 0.0	 1	 -30.0	 30.0;
	26	 19	 0.0057	 0.039521	 0.075533	 480.0	 480.0	 480.0	 0.0	 0.0	 1	 -30.0	 30.0;
	27	 20	 0.0057	 0.039521	 0.075533	 480.0	 480.0	 480.0	 0.0	 0.0	 1	 -30.0	 30.0;
	11	 6	 0.00525	 0.03988	 0.061952	 373.0	 373.0	 373.0	 0.0	 0.0	 1	 -30.0	 30.0;
	32	 11	 0.00093	 0.00651	 0.011132	 373.0	 373.0	 373.0	 0.0	 0.0	 1	 -30.0	 30.0;
	23	 12	 0.00205	 0.01326	 0.022429	 415.0	 415.0	 415.0	 0.0	 0.0	 1	 -30.0	 30.0;
	34	 5	 0.007831	 0.043	 0.04962	 335.0	 335.0	 335.0	 0.0	 0.0	 1	 -30.0	 30.0;
	19	 4	 0.00293	 0.01599	 0.024781	 362.0	 362.0	 362.0	 0.0	 0.0	 1	 -30.0	 30.0;
	26	 1	 0.00155	 0.01169	 0.018198	 747.0	 747.0	 747.0	 0.0	 0.0	 1	 -30.0	 30.0;
	27	 2	 0.00155	 0.01169	 0.018198	 747.0	 747.0	 747.0	 0.0	 0.0	 1	 -30.0	 30.0;
	27	 33	 0.003841	 0.028531	 0.045883	 392.0	 392.0	 392.0	 0.0	 0.0	 1	 -30.0	 30.0;
	24	 33	 2e-06	 2.1e-05	 0.0	 392.0	 392.0	 392.0	 0.0	 0.0	 1	 -30.0	 30.0;
	25	 9	 0.00298	 0.03417	 0.93504	 831.0	 831.0	 831.0	 0.0	 0.0	 1	 -30.0	 30.0;
	28	 25	 0.00358	 0.04262	 1.0944	 1386.0	 1386.0	 1386.0	 0.0	 0.0	 1	 -30.0	 30.0;
	14	 29	 0.00336	 0.03977	 1.02163	 1316.0	 1316.0	 1316.0	 0.0	 0.0	 1	 -30.0	 30.0;
	8	 15	 0.00299	 0.03675	 0.9184	 1358.0	 1358.0	 1358.0	 0.0	 0.0	 1	 -30.0	 30.0;
	8	 14	 0.00112	 0.01329	 0.341248	 1358.0	 1358.0	 1358.0	 0.0	 0.0	 1	 -30.0	 30.0;
	31	 29	 0.00063	 0.00749	 0.392256	 1358.0	 1358.0	 1358.0	 0.0	 0.0	 1	 -30.0	 30.0;
	63	 59	 0.010479	 0.060969	 0.092047	 316.0	 316.0	 316.0	 0.0	 0.0	 1	 -30.0	 30.0;
	61	 56	 0.00882	 0.065641	 0.100662	 274.0	 274.0	 274.0	 0.0	 0.0	 1	 -30.0	 30.0;
	67	 35	 0.011219	 0.065581	 0.098349	 274.0	 274.0	 274.0	 0.0	 0.0	 1	 -30.0	 30.0;
	51	 35	 0.01163	 0.07031	 0.105802	 377.0	 377.0	 377.0	 0.0	 0.0	 1	 -30.0	 30.0;
	59	 43	 0.00545	 0.040211	 0.066986	 446.0	 446.0	 446.0	 0.0	 0.0	 1	 -30.0	 30.0;
	60	 44	 0.00545	 0.040211	 0.066986	 446.0	 446.0	 446.0	 0.0	 0.0	 1	 -30.0	 30.0;
	60	 35	 0.00837	 0.04868	 0.073481	 419.0	 419.0	 419.0	 0.0	 0.0	 1	 -30.0	 30.0;
	68	 52	 0.003159	 0.02076	 0.03146	 415.0	 415.0	 415.0	 0.0	 0.0	 1	 -30.0	 30.0;
	52	 39	 0.006979	 0.051961	 0.079666	 373.0	 373.0	 373.0	 0.0	 0.0	 1	 -30.0	 30.0;
	37	 56	 0.00374	 0.027831	 0.042689	 274.0	 274.0	 274.0	 0.0	 0.0	 1	 -30.0	 30.0;
	38	 36	 0.00769	 0.057271	 0.087894	 373.0	 373.0	 373.0	 0.0	 0.0	 1	 -30.0	 30.0;
	55	 38	 0.00556	 0.04145	 0.063598	 427.0	 427.0	 427.0	 0.0	 0.0	 1	 -30.0	 30.0;
	67	 37	 0.004521	 0.03368	 0.051691	 392.0	 392.0	 392.0	 0.0	 0.0	 1	 -30.0	 30.0;
	67	 66	 0.00151	 0.008781	 0.013165	 377.0	 377.0	 377.0	 0.0	 0.0	 1	 -30.0	 30.0;
	62	 43	 0.00574	 0.042831	 0.065727	 446.0	 446.0	 446.0	 0.0	 0.0	 1	 -30.0	 30.0;
	63	 44	 0.00707	 0.045409	 0.069309	 347.0	 347.0	 347.0	 0.0	 0.0	 1	 -30.0	 30.0;
	62	 40	 0.01213	 0.062151	 0.093712	 347.0	 347.0	 347.0	 0.0	 0.0	 1	 -30.0	 30.0;
	61	 41	 0.002479	 0.017979	 0.027588	 373.0	 373.0	 373.0	 0.0	 0.0	 1	 -30.0	 30.0;
	47	 40	 0.002401	 0.01494	 0.022525	 377.0	 377.0	 377.0	 0.0	 0.0	 1	 -30.0	 30.0;
	50	 46	 0.00167	 0.0189	 0.54176	 1358.0	 1358.0	 1358.0	 0.0	 0.0	 1	 -30.0	 30.0;
	58	 54	 0.00109	 0.01277	 0.34176	 1358.0	 1358.0	 1358.0	 0.0	 0.0	 1	 -30.0	 30.0;
	42	 58	 0.002259	 0.026439	 0.70784	 1358.0	 1358.0	 1358.0	 0.0	 0.0	 1	 -30.0	 30.0;
	64	 58	 0.00094	 0.01097	 0.29376	 1552.0	 1552.0	 1552.0	 0.0	 0.0	 1	 -30.0	 30.0;
	48	 65	 0.00113	 0.01406	 0.37488	 831.0	 831.0	 831.0	 0.0	 0.0	 1	 -30.0	 30.0;
	53	 45	 0.00176	 0.02144	 0.57344	 1358.0	 1358.0	 1358.0	 0.0	 0.0	 1	 -30.0	 30.0;
	96	 125	 0.004876	 0.033616	 0.059609	 446.0	 446.0	 446.0	 0.0	 0.0	 1	 -30.0	 30.0;
	75	 106	 0.01093	 0.059194	 0.08439	 290.0	 290.0	 290.0	 0.0	 0.0	 1	 -30.0	 30.0;
	106	 94	 0.001942	 0.013926	 0.022845	 446.0	 446.0	 446.0	 0.0	 0.0	 1	 -30.0	 30.0;
	79	 85	 0.004318	 0.029752	 0.05264	 373.0	 373.0	 373.0	 0.0	 0.0	 1	 -30.0	 30.0;
	131	 130	 0.000661	 0.004959	 0.007579	 419.0	 419.0	 419.0	 0.0	 0.0	 1	 -30.0	 30.0;
	107	 131	 0.005372	 0.040393	 0.060055	 419.0	 419.0	 419.0	 0.0	 0.0	 1	 -30.0	 30.0;
	91	 131	 0.000826	 0.005248	 0.008683	 305.0	 305.0	 305.0	 0.0	 0.0	 1	 -30.0	 30.0;
	100	 119	 0.015888	 0.087603	 0.116818	 347.0	 347.0	 347.0	 0.0	 0.0	 1	 -30.0	 30.0;
	81	 113	 0.002169	 0.014587	 0.025749	 316.0	 316.0	 316.0	 0.0	 0.0	 1	 -30.0	 30.0;
	116	 101	 0.017727	 0.116777	 0.163611	 290.0	 290.0	 290.0	 0.0	 0.0	 1	 -30.0	 30.0;
	126	 74	 0.00593	 0.04093	 0.072145	 446.0	 446.0	 446.0	 0.0	 0.0	 1	 -30.0	 30.0;
	108	 90	 0.003905	 0.028471	 0.044983	 427.0	 427.0	 427.0	 0.0	 0.0	 1	 -30.0	 30.0;
	118	 79	 0.008161	 0.042417	 0.061197	 385.0	 385.0	 385.0	 0.0	 0.0	 1	 -30.0	 30.0;
	119	 78	 0.008161	 0.042417	 0.061197	 385.0	 385.0	 385.0	 0.0	 0.0	 1	 -30.0	 30.0;
	79	 76	 0.005186	 0.038388	 0.058748	 492.0	 492.0	 492.0	 0.0	 0.0	 1	 -30.0	 30.0;
	78	 73	 0.002128	 0.014029	 0.022603	 335.0	 335.0	 335.0	 0.0	 0.0	 1	 -30.0	 30.0;
	114	 78	 0.004628	 0.027748	 0.046115	 362.0	 362.0	 362.0	 0.0	 0.0	 1	 -30.0	 30.0;
	103	 72	 0.011219	 0.070744	 0.115705	 290.0	 290.0	 290.0	 0.0	 0.0	 1	 -30.0	 30.0;
	110	 117	 0.006012	 0.041467	 0.073636	 427.0	 427.0	 427.0	 0.0	 0.0	 1	 -30.0	 30.0;
	91	 69	 0.002066	 0.012789	 0.020551	 316.0	 316.0	 316.0	 0.0	 0.0	 1	 -30.0	 30.0;
	86	 90	 0.001364	 0.009731	 0.016243	 457.0	 457.0	 457.0	 0.0	 0.0	 1	 -30.0	 30.0;
	129	 87	 0.000579	 0.004112	 0.007008	 446.0	 446.0	 446.0	 0.0	 0.0	 1	 -30.0	 30.0;
	132	 76	 0.000847	 0.00624	 0.009544	 457.0	 457.0	 457.0	 0.0	 0.0	 1	 -30.0	 30.0;
	133	 77	 0.000847	 0.00626	 0.009477	 457.0	 457.0	 457.0	 0.0	 0.0	 1	 -30.0	 30.0;
	102	 77	 0.001591	 0.011116	 0.019128	 492.0	 492.0	 492.0	 0.0	 0.0	 1	 -30.0	 30.0;
	125	 104	 0.003141	 0.021591	 0.038391	 446.0	 446.0	 446.0	 0.0	 0.0	 1	 -30.0	 30.0;
	126	 111	 0.004545	 0.03157	 0.055312	 373.0	 373.0	 373.0	 0.0	 0.0	 1	 -30.0	 30.0;
	104	 84	 0.001446	 0.009917	 0.017598	 373.0	 373.0	 373.0	 0.0	 0.0	 1	 -30.0	 30.0;
	105	 95	 0.003822	 0.026674	 0.046154	 373.0	 373.0	 373.0	 0.0	 0.0	 1	 -30.0	 30.0;
	112	 80	 0.007769	 0.041281	 0.063907	 316.0	 316.0	 316.0	 0.0	 0.0	 1	 -30.0	 30.0;
	89	 78	 0.004463	 0.030413	 0.048671	 290.0	 290.0	 290.0	 0.0	 0.0	 1	 -30.0	 30.0;
	117	 108	 0.005888	 0.035062	 0.052349	 290.0	 290.0	 290.0	 0.0	 0.0	 1	 -30.0	 30.0;
	109	 99	 0.003161	 0.023409	 0.036165	 373.0	 373.0	 373.0	 0.0	 0.0	 1	 -30.0	 30.0;
	116	 79	 0.001839	 0.012603	 0.022399	 373.0	 373.0	 373.0	 0.0	 0.0	 1	 -30.0	 30.0;
	107	 88	 0.001715	 0.009607	 0.014239	 335.0	 335.0	 335.0	 0.0	 0.0	 1	 -30.0	 30.0;
	98	 79	 0.003409	 0.024421	 0.039969	 290.0	 290.0	 290.0	 0.0	 0.0	 1	 -30.0	 30.0;
	117	 78	 0.001839	 0.012603	 0.02239	 373.0	 373.0	 373.0	 0.0	 0.0	 1	 -30.0	 30.0;
	83	 97	 0.005702	 0.041488	 0.066172	 446.0	 446.0	 446.0	 0.0	 0.0	 1	 -30.0	 30.0;
	124	 118	 0.004587	 0.024628	 0.036165	 347.0	 347.0	 347.0	 0.0	 0.0	 1	 -30.0	 30.0;
	124	 110	 0.002149	 0.013327	 0.022109	 290.0	 290.0	 290.0	 0.0	 0.0	 1	 -30.0	 30.0;
	100	 71	 0.000785	 0.004876	 0.00726	 316.0	 316.0	 316.0	 0.0	 0.0	 1	 -30.0	 30.0;
	101	 70	 0.000785	 0.004876	 0.007241	 316.0	 316.0	 316.0	 0.0	 0.0	 1	 -30.0	 30.0;
	93	 127	 0.002413	 0.027544	 0.767968	 831.0	 831.0	 831.0	 0.0	 0.0	 1	 -30.0	 30.0;
	82	 127	 0.002462	 0.028525	 0.7616	 1621.0	 1621.0	 1621.0	 0.0	 0.0	 1	 -30.0	 30.0;
	122	 115	 0.000913	 0.0104	 0.289888	 1358.0	 1358.0	 1358.0	 0.0	 0.0	 1	 -30.0	 30.0;
	123	 121	 0.003119	 0.035631	 0.991072	 831.0	 831.0	 831.0	 0.0	 0.0	 1	 -30.0	 30.0;
	115	 128	 0.000919	 0.010512	 0.292928	 1358.0	 1358.0	 1358.0	 0.0	 0.0	 1	 -30.0	 30.0;
	174	 156	 0.01545	 0.073349	 0.126614	 461.0	 461.0	 461.0	 0.0	 0.0	 1	 -30.0	 30.0;
	175	 155	 0.01545	 0.073349	 0.126614	 461.0	 461.0	 461.0	 0.0	 0.0	 1	 -30.0	 30.0;
	177	 155	 0.01457	 0.07955	 0.14007	 362.0	 362.0	 362.0	 0.0	 0.0	 1	 -30.0	 30.0;
	178	 156	 0.01457	 0.07955	 0.14007	 362.0	 362.0	 362.0	 0.0	 0.0	 1	 -30.0	 30.0;
	177	 144	 0.006031	 0.04401	 0.069793	 373.0	 373.0	 373.0	 0.0	 0.0	 1	 -30.0	 30.0;
	166	 140	 0.011031	 0.08057	 0.124127	 446.0	 446.0	 446.0	 0.0	 0.0	 1	 -30.0	 30.0;
	137	 155	 0.005831	 0.04231	 0.070664	 427.0	 427.0	 427.0	 0.0	 0.0	 1	 -30.0	 30.0;
	171	 174	 0.01849	 0.095599	 0.159139	 305.0	 305.0	 305.0	 0.0	 0.0	 1	 -30.0	 30.0;
	152	 175	 0.010581	 0.053	 0.088475	 415.0	 415.0	 415.0	 0.0	 0.0	 1	 -30.0	 30.0;
	154	 156	 0.012521	 0.091359	 0.145394	 457.0	 457.0	 457.0	 0.0	 0.0	 1	 -30.0	 30.0;
	136	 137	 0.00506	 0.036539	 0.063598	 305.0	 305.0	 305.0	 0.0	 0.0	 1	 -30.0	 30.0;
	148	 143	 0.01043	 0.077891	 0.122065	 427.0	 427.0	 427.0	 0.0	 0.0	 1	 -30.0	 30.0;
	153	 181	 0.007711	 0.056961	 0.088378	 373.0	 373.0	 373.0	 0.0	 0.0	 1	 -30.0	 30.0;
	171	 147	 0.018599	 0.09638	 0.140941	 290.0	 290.0	 290.0	 0.0	 0.0	 1	 -30.0	 30.0;
	176	 170	 0.00244	 0.01318	 0.021296	 377.0	 377.0	 377.0	 0.0	 0.0	 1	 -30.0	 30.0;
	170	 140	 0.00355	 0.02593	 0.041237	 446.0	 446.0	 446.0	 0.0	 0.0	 1	 -30.0	 30.0;
	171	 168	 0.01312	 0.076219	 0.116644	 362.0	 362.0	 362.0	 0.0	 0.0	 1	 -30.0	 30.0;
	170	 152	 0.009341	 0.05225	 0.087701	 305.0	 305.0	 305.0	 0.0	 0.0	 1	 -30.0	 30.0;
	146	 135	 0.006141	 0.032521	 0.052456	 385.0	 385.0	 385.0	 0.0	 0.0	 1	 -30.0	 30.0;
	147	 134	 0.00438	 0.03188	 0.050723	 457.0	 457.0	 457.0	 0.0	 0.0	 1	 -30.0	 30.0;
	165	 147	 0.000479	 0.00331	 0.005711	 446.0	 446.0	 446.0	 0.0	 0.0	 1	 -30.0	 30.0;
	166	 146	 0.000479	 0.00331	 0.005711	 446.0	 446.0	 446.0	 0.0	 0.0	 1	 -30.0	 30.0;
	154	 143	 0.010539	 0.076859	 0.122355	 373.0	 373.0	 373.0	 0.0	 0.0	 1	 -30.0	 30.0;
	160	 148	 0.00469	 0.034651	 0.053821	 427.0	 427.0	 427.0	 0.0	 0.0	 1	 -30.0	 30.0;
	149	 141	 0.006469	 0.0413	 0.069212	 427.0	 427.0	 427.0	 0.0	 0.0	 1	 -30.0	 30.0;
	169	 141	 0.00105	 0.007211	 0.01028	 373.0	 373.0	 373.0	 0.0	 0.0	 1	 -30.0	 30.0;
	169	 160	 0.006099	 0.044831	 0.070954	 373.0	 373.0	 373.0	 0.0	 0.0	 1	 -30.0	 30.0;
	177	 136	 0.002211	 0.01655	 0.024781	 373.0	 373.0	 373.0	 0.0	 0.0	 1	 -30.0	 30.0;
	179	 178	 0.005169	 0.036979	 0.058951	 373.0	 373.0	 373.0	 0.0	 0.0	 1	 -30.0	 30.0;
	181	 174	 0.002401	 0.017789	 0.027588	 381.0	 381.0	 381.0	 0.0	 0.0	 1	 -30.0	 30.0;
	158	 138	 0.00274	 0.02696	 0.70592	 1150.0	 1150.0	 1150.0	 0.0	 0.0	 1	 -30.0	 30.0;
	164	 139	 0.0017	 0.01733	 0.45632	 915.0	 915.0	 915.0	 0.0	 0.0	 1	 -30.0	 30.0;
	162	 163	 0.00136	 0.01574	 0.433664	 1621.0	 1621.0	 1621.0	 0.0	 0.0	 1	 -30.0	 30.0;
	172	 151	 0.00371	 0.04326	 1.18688	 693.0	 693.0	 693.0	 0.0	 0.0	 1	 -30.0	 30.0;
	188	 193	 0.02738	 0.142539	 0.200473	 351.0	 351.0	 351.0	 0.0	 0.0	 1	 -30.0	 30.0;
	197	 203	 0.02756	 0.16014	 0.242871	 274.0	 274.0	 274.0	 0.0	 0.0	 1	 -30.0	 30.0;
	189	 208	 0.01905	 0.11132	 0.167851	 274.0	 274.0	 274.0	 0.0	 0.0	 1	 -30.0	 30.0;
	191	 194	 0.00795	 0.05919	 0.090798	 373.0	 373.0	 373.0	 0.0	 0.0	 1	 -30.0	 30.0;
	193	 182	 0.0018	 0.021141	 0.051498	 747.0	 747.0	 747.0	 0.0	 0.0	 1	 -30.0	 30.0;
	202	 204	 0.00731	 0.055789	 0.083635	 274.0	 274.0	 274.0	 0.0	 0.0	 1	 -30.0	 30.0;
	190	 201	 0.00564	 0.041961	 0.064372	 274.0	 274.0	 274.0	 0.0	 0.0	 1	 -30.0	 30.0;
...